@<TRIPOS>MOLECULE
mol
37500 30000
SMALL
USER_CHARGES


@<TRIPOS>ATOM
1 C 20.195510025295988 7.420741538463943 226.02690860581933 C 0.0 **** -0.24
2 H 20.83824405360687 6.5864600595109835 225.74678729835992 H 0.0 **** 0.06
3 H 20.803956158482464 8.310604066268496 226.18667890552567 H 0.0 **** 0.06
4 H 19.661752209276045 7.175216852261286 226.9448153482249 H 0.0 **** 0.06
5 H 19.47789685200982 7.609714955654937 225.2283417939871 H 0.0 **** 0.06
6 C 87.83283160504857 73.48237341455484 115.79013452411724 C 0.0 **** -0.24
7 H 88.2762616401966 74.46991917734198 115.91535726197412 H 0.0 **** 0.06
8 H 87.05286676830917 73.3356491023487 116.53807329850375 H 0.0 **** 0.06
9 H 88.6027247848815 72.7203267072484 115.9144361104465 H 0.0 **** 0.06
10 H 87.39991931741139 73.4027062796564 114.79260323390488 H 0.0 **** 0.06
11 C 151.98104343199708 90.5328512701515 108.63398955444296 C 0.0 **** -0.24
12 H 152.79026880378277 90.97584635959618 108.05378595760968 H 0.0 **** 0.06
13 H 151.1271739412292 90.3455166605265 107.98172486831999 H 0.0 **** 0.06
14 H 151.686549653812 91.2181844606929 109.42876273045854 H 0.0 **** 0.06
15 H 152.31893217041733 89.59298491271696 109.07021197109796 H 0.0 **** 0.06
16 C 115.86428492367529 35.70086729209763 45.847428271515724 C 0.0 **** -0.24
17 H 115.81057782262246 34.83902505935501 46.51244637675241 H 0.0 **** 0.06
18 H 116.59746683989854 36.41064552635575 46.23072020519065 H 0.0 **** 0.06
19 H 114.88613741107022 36.17985061908277 45.79448496360587 H 0.0 **** 0.06
20 H 116.16229949478793 35.372477341867665 44.85142579631503 H 0.0 **** 0.06
21 C 186.5082275520826 178.71031132673107 217.54809606643312 C 0.0 **** -0.24
22 H 187.59363425321845 178.80736278154097 217.56305848182654 H 0.0 **** 0.06
23 H 186.215992353626 177.81005566638942 218.08967331321298 H 0.0 **** 0.06
24 H 186.16391496426124 178.6420676840056 216.5167439420859 H 0.0 **** 0.06
25 H 186.05947658405648 179.58198597861613 218.02430026388032 H 0.0 **** 0.06
26 C 33.32052914001517 120.2800164190692 103.98968044541641 C 0.0 **** -0.24
27 H 32.849598288979365 119.74812377837753 104.81743641098939 H 0.0 **** 0.06
28 H 34.40218284778737 120.1568111253458 104.04810377673925 H 0.0 **** 0.06
29 H 33.07076112384627 121.33853411302275 104.04978687362461 H 0.0 **** 0.06
30 H 32.95811291999743 119.87356035817965 103.04597259142685 H 0.0 **** 0.06
31 C 25.280154533036892 22.406926698750624 85.12330668517313 C 0.0 **** -0.24
32 H 24.33648849655728 22.429198135995932 85.66900895789189 H 0.0 **** 0.06
33 H 25.66879756139221 21.388820307988283 85.11132590882448 H 0.0 **** 0.06
34 H 25.997975659416824 23.065356611985578 85.6117843634413 H 0.0 **** 0.06
35 H 25.114705698187862 22.744877206880744 84.09981280825096 H 0.0 **** 0.06
36 C 20.464257825376905 28.230945762720225 145.75593311165952 C 0.0 **** -0.24
37 H 20.453911048344594 28.347311861626565 146.83975202933868 H 0.0 **** 0.06
38 H 21.494581541263486 28.153915156388308 145.40873159278675 H 0.0 **** 0.06
39 H 19.987984167070493 29.095902831900688 145.29335636308082 H 0.0 **** 0.06
40 H 19.919169600948067 27.32703950832176 145.48285823898652 H 0.0 **** 0.06
41 C 114.83431099841758 100.13181575362483 188.0636105868981 C 0.0 **** -0.24
42 H 114.42431069766744 99.2151442429269 187.64185515300846 H 0.0 **** 0.06
43 H 114.89498247822596 100.03920491768537 189.14811175174748 H 0.0 **** 0.06
44 H 114.18834908956646 100.97142777312746 187.80543730103656 H 0.0 **** 0.06
45 H 115.83137445026583 100.30335679852726 187.6575025770225 H 0.0 **** 0.06
46 C 41.54140475675288 234.75004158788585 114.98030334815235 C 0.0 **** -0.24
47 H 42.282577211073956 234.30394088776714 114.3167936405479 H 0.0 **** 0.06
48 H 41.61052894289142 234.2869260787742 115.96465208822352 H 0.0 **** 0.06
49 H 40.54447851156057 234.58804258736592 114.57094903904763 H 0.0 **** 0.06
50 H 41.72908060670285 235.81970389669044 115.06723940725524 H 0.0 **** 0.06
51 C 150.19857347860068 231.503804081614 148.347637892628 C 0.0 **** -0.24
52 H 150.40850838476246 232.47435543586673 148.79716872934813 H 0.0 **** 0.06
53 H 149.78574201158725 230.8360233668204 149.1033221250933 H 0.0 **** 0.06
54 H 151.1227496294288 231.0800575999468 147.95250380521537 H 0.0 **** 0.06
55 H 149.47997556240603 231.6267184447728 147.53733136847936 H 0.0 **** 0.06
56 C 236.08980515972095 32.493323392349424 62.791561252118726 C 0.0 **** -0.24
57 H 236.6180804922372 33.20758069821849 63.42406362741664 H 0.0 **** 0.06
58 H 235.16751446288313 32.185739806463715 63.284309439891416 H 0.0 **** 0.06
59 H 236.7218172564142 31.62170827932286 62.62362862831523 H 0.0 **** 0.06
60 H 235.8538570235349 32.96153549346454 61.83600566856248 H 0.0 **** 0.06
61 C 60.592231206792235 242.03977172404313 18.18598287139875 C 0.0 **** -0.24
62 H 60.322812770548296 241.0862076819566 17.731712143559974 H 0.0 **** 0.06
63 H 61.42235947421182 242.48190902995427 17.636503830806333 H 0.0 **** 0.06
64 H 60.88686061256678 241.876989252235 19.222447990898644 H 0.0 **** 0.06
65 H 59.734274765276666 242.7117406100262 18.15290514697594 H 0.0 **** 0.06
66 C 45.404109331018674 168.98874866391648 228.32359960574613 C 0.0 **** -0.24
67 H 44.62715297125963 168.66538862751568 227.63043896296048 H 0.0 **** 0.06
68 H 45.039439729394445 169.83439739043533 228.9080719299233 H 0.0 **** 0.06
69 H 46.28946105523981 169.28842492225917 227.76269049072542 H 0.0 **** 0.06
70 H 45.657577005850044 168.1669276575587 228.99287677939586 H 0.0 **** 0.06
71 C 73.22259412520663 177.09422726100604 95.90932117685642 C 0.0 **** -0.24
72 H 72.23611361800386 177.04396691617677 96.37028394783263 H 0.0 **** 0.06
73 H 73.92395899812766 177.5571383796169 96.60344881603831 H 0.0 **** 0.06
74 H 73.16785240577948 177.68791388529553 94.99700757826591 H 0.0 **** 0.06
75 H 73.56220842168452 176.08717541259972 95.66774040181676 H 0.0 **** 0.06
76 C 13.308798409518545 176.67572463326042 187.4291447477458 C 0.0 **** -0.24
77 H 12.826302847155006 177.07204807855953 188.32329705050148 H 0.0 **** 0.06
78 H 14.382445240586435 176.59786560443536 187.59946509228604 H 0.0 **** 0.06
79 H 13.121110363547274 177.34478323052707 186.5887464077096 H 0.0 **** 0.06
80 H 12.903294803993646 175.68894595517173 187.20560227804344 H 0.0 **** 0.06
81 C 80.87286163093299 71.82413293853514 168.37579433528057 C 0.0 **** -0.24
82 H 80.90945739587929 71.20512697639455 167.4783574542777 H 0.0 **** 0.06
83 H 80.21180444730604 72.67338185729713 168.2047380961255 H 0.0 **** 0.06
84 H 81.87531614096767 72.18288594171864 168.6089440851292 H 0.0 **** 0.06
85 H 80.4962187541415 71.23145626303855 169.20951615450926 H 0.0 **** 0.06
86 C 147.37733618748842 211.50582290505778 46.35146682754535 C 0.0 **** -0.24
87 H 146.33910281145074 211.83457610413706 46.314448548674505 H 0.0 **** 0.06
88 H 148.03294114509703 212.3492632129176 46.13323950845219 H 0.0 **** 0.06
89 H 147.53525102822763 210.72058947387978 45.6117615237699 H 0.0 **** 0.06
90 H 147.6008571728011 211.11819497319462 47.34535390558662 H 0.0 **** 0.06
91 C 225.57496068545146 70.184741861709 239.67021342276036 C 0.0 **** -0.24
92 H 226.05743249358213 70.5289838983343 240.58508496854063 H 0.0 **** 0.06
93 H 224.58267653316847 70.63123575098552 239.59300620181216 H 0.0 **** 0.06
94 H 225.48405206887543 69.09913371079858 239.69385931067512 H 0.0 **** 0.06
95 H 226.17373639013414 70.48091294458354 238.80963053771535 H 0.0 **** 0.06
96 C 106.83712786296618 42.77577036596253 104.48534604863755 C 0.0 **** -0.24
97 H 106.69791334894632 43.60608855152719 103.79191356165535 H 0.0 **** 0.06
98 H 107.89567013863586 42.520955303889735 104.53794932663857 H 0.0 **** 0.06
99 H 106.27128589289623 41.912087021002264 104.1358099052461 H 0.0 **** 0.06
100 H 106.48283825361688 43.066544558118395 105.47380737890441 H 0.0 **** 0.06
101 C 120.98097002862818 103.88559982320547 77.09066401990177 C 0.0 **** -0.24
102 H 120.31971176936923 104.62402739402549 77.5427655515127 H 0.0 **** 0.06
103 H 120.39313151096465 103.18688175799423 76.49585017817193 H 0.0 **** 0.06
104 H 121.50804026794037 103.34219572327888 77.87554141542913 H 0.0 **** 0.06
105 H 121.70385264375162 104.39049878576873 76.45017723038725 H 0.0 **** 0.06
106 C 247.51728906592865 189.62890544166044 148.9612836528698 C 0.0 **** -0.24
107 H 248.17725129309207 188.78362989718238 149.15946461436656 H 0.0 **** 0.06
108 H 247.83112865967087 190.12717794914505 148.0440433426353 H 0.0 **** 0.06
109 H 247.5672267448889 190.33063687891695 149.79262279378008 H 0.0 **** 0.06
110 H 246.49323800780803 189.2711941144563 148.84907573527937 H 0.0 **** 0.06
111 C 138.81295484476922 59.19352372671264 13.839494671154256 C 0.0 **** -0.24
112 H 138.07941461189876 59.723465142862324 14.44732227327691 H 0.0 **** 0.06
113 H 139.75635712004987 59.73939661211975 13.852855420390796 H 0.0 **** 0.06
114 H 138.45009316835504 59.119348181739326 12.814483959699913 H 0.0 **** 0.06
115 H 138.96632399296055 58.19321477540103 14.245076328237502 H 0.0 **** 0.06
116 C 243.37719123858903 3.6601324981287746 2.514457941546965 C 0.0 **** -0.24
117 H 243.1398230662329 3.357738870076318 3.534336371514115 H 0.0 **** 0.06
118 H 242.55849402192274 4.259249266763362 2.113298928431533 H 0.0 **** 0.06
119 H 243.51495841083596 2.773393294214557 1.8959150106245772 H 0.0 **** 0.06
120 H 244.29315594313888 4.250166710020068 2.5135368417932398 H 0.0 **** 0.06
121 C 163.60567247084356 99.24960166137316 44.038554354778924 C 0.0 **** -0.24
122 H 163.37720064653394 100.28317219860358 43.778213922839456 H 0.0 **** 0.06
123 H 163.11496795962512 98.58012699869963 43.33141763759582 H 0.0 **** 0.06
124 H 163.24540364198197 99.04078138104762 45.046283504136724 H 0.0 **** 0.06
125 H 164.6838005389141 99.09394251390756 43.99864610398417 H 0.0 **** 0.06
126 C 72.48984121224512 190.81371012086453 28.570143376917002 C 0.0 **** -0.24
127 H 73.53282393694008 191.1309652932142 28.55938394832694 H 0.0 **** 0.06
128 H 71.93856610734224 191.4039597288447 29.3026341517689 H 0.0 **** 0.06
129 H 72.43321602146008 189.7585333434913 28.836558692244665 H 0.0 **** 0.06
130 H 72.05500104191827 190.9634865191312 27.58128057643674 H 0.0 **** 0.06
131 C 179.50550301794937 187.02627447924635 75.6711022167197 C 0.0 **** -0.24
132 H 179.12214216888947 187.20935422117265 74.66719343667958 H 0.0 **** 0.06
133 H 180.0607647642032 187.90015341702465 76.01238299220577 H 0.0 **** 0.06
134 H 180.16582377380524 186.159044052533 75.65518185293482 H 0.0 **** 0.06
135 H 178.67292005865858 186.8367215037819 76.34873475465608 H 0.0 **** 0.06
136 C 158.12925226120282 80.91601177308306 104.72759100811933 C 0.0 **** -0.24
137 H 157.9177911190844 81.82133681115187 105.29503467275131 H 0.0 **** 0.06
138 H 157.25551074209156 80.64754397496753 104.13233611733116 H 0.0 **** 0.06
139 H 158.36546579942203 80.10321174259539 105.41380951296748 H 0.0 **** 0.06
140 H 158.9779713874535 81.09178881293425 104.06697020799109 H 0.0 **** 0.06
141 C 123.86465064264232 19.07823978550823 89.98676623349408 C 0.0 **** -0.24
142 H 122.90529582861885 19.37609243989391 89.56372166660464 H 0.0 **** 0.06
143 H 124.58605316769089 18.93077201307716 89.18253229342659 H 0.0 **** 0.06
144 H 123.74412425439502 18.14947767412869 90.542755335197 H 0.0 **** 0.06
145 H 124.22322249677822 19.859437030059468 90.65785838092322 H 0.0 **** 0.06
146 C 213.17276162918984 92.35693439557812 140.32813212961736 C 0.0 **** -0.24
147 H 212.11898912866883 92.6347567729417 140.3300835881914 H 0.0 **** 0.06
148 H 213.78547997598906 93.25884991937622 140.35815213597863 H 0.0 **** 0.06
149 H 213.39873724051745 91.79419590242304 139.42284655452747 H 0.0 **** 0.06
150 H 213.38732833785306 91.74229196513858 141.20187372240937 H 0.0 **** 0.06
151 C 212.19564945640684 58.54783635859309 230.6566412051565 C 0.0 **** -0.24
152 H 212.73438956405118 58.375300251515284 231.58777811600032 H 0.0 **** 0.06
153 H 211.30979672624028 57.91205035094387 230.62633148276706 H 0.0 **** 0.06
154 H 212.84297177680287 58.30922175996818 229.8127019556788 H 0.0 **** 0.06
155 H 211.8941413289662 59.59367183749751 230.59943484418946 H 0.0 **** 0.06
156 C 160.9379768877445 166.15931597523127 104.77602303610522 C 0.0 **** -0.24
157 H 161.86903311346228 165.68359025621848 104.46957091251929 H 0.0 **** 0.06
158 H 160.10387270919327 165.48522266070836 104.57895959430002 H 0.0 **** 0.06
159 H 160.79992695297605 167.083431881244 104.21496281275287 H 0.0 **** 0.06
160 H 160.97950726474758 166.38423391032418 105.8416926462422 H 0.0 **** 0.06
161 C 92.80931083072028 198.5581623185372 175.72599436752134 C 0.0 **** -0.24
162 H 92.02905758261178 198.22951507300942 175.0406503588094 H 0.0 **** 0.06
163 H 93.48011196593058 197.7255950994265 175.94002997204376 H 0.0 **** 0.06
164 H 92.35394821615594 198.90666251587862 176.65334817135397 H 0.0 **** 0.06
165 H 93.37425043191098 199.37201900074854 175.27124485519147 H 0.0 **** 0.06
166 C 92.03749331138684 16.146038135981925 212.18564921666555 C 0.0 **** -0.24
167 H 91.8171385683824 17.108496286089334 211.72261716912277 H 0.0 **** 0.06
168 H 93.06639233677686 16.145704665125564 212.546918179611 H 0.0 **** 0.06
169 H 91.9095135111983 15.351940272636014 211.45132823461694 H 0.0 **** 0.06
170 H 91.35831688864704 15.98147725881158 213.021486917823 H 0.0 **** 0.06
171 C 234.58286596500082 241.74288732845767 3.750953717593916 C 0.0 **** -0.24
172 H 233.58635416661863 241.31402545133437 3.8560598265716663 H 0.0 **** 0.06
173 H 234.53622540920549 242.61656215353514 3.1007641076560475 H 0.0 **** 0.06
174 H 235.25366048894017 241.00191913846726 3.3163718325913294 H 0.0 **** 0.06
175 H 234.95553724717774 242.04015366089556 4.731435954507674 H 0.0 **** 0.06
176 C 84.9576900986047 183.4093193474709 227.84824815696277 C 0.0 **** -0.24
177 H 84.23652194690914 182.6162960165081 227.6475417201431 H 0.0 **** 0.06
178 H 85.86297130898839 182.97723796363508 228.27502816999373 H 0.0 **** 0.06
179 H 84.52767921268781 184.11985697201365 228.5541153472808 H 0.0 **** 0.06
180 H 85.2018109733313 183.9219118936643 226.918745369543 H 0.0 **** 0.06
181 C 110.52379380375373 80.75690174649762 9.684002517249155 C 0.0 **** -0.24
182 H 110.70604870625104 81.31819020221698 8.766766994901076 H 0.0 **** 0.06
183 H 111.47565708355455 80.5175139161324 10.158607971434861 H 0.0 **** 0.06
184 H 109.99408055841016 79.83479166271385 9.445797908789729 H 0.0 **** 0.06
185 H 109.91986558810464 81.35819306306368 10.362939203234276 H 0.0 **** 0.06
186 C 239.5933812709242 221.0139985380126 246.48263137106568 C 0.0 **** -0.24
187 H 238.92581483787058 220.1828134303564 246.71251602817443 H 0.0 **** 0.06
188 H 240.54188138332574 220.62483827794924 246.11077869838215 H 0.0 **** 0.06
189 H 239.76957125953794 221.59864640401085 247.38477189017803 H 0.0 **** 0.06
190 H 239.13666879197717 221.6472813771019 245.7224392106719 H 0.0 **** 0.06
191 C 195.0752222891672 1.0848971442439534 17.95949577177268 C 0.0 **** -0.24
192 H 195.26650666430032 2.142840608619352 18.137763767519218 H 0.0 **** 0.06
193 H 195.11903339968453 0.5443614094759255 18.905863190239728 H 0.0 **** 0.06
194 H 195.82802387075282 0.6886790478611999 17.278135686036364 H 0.0 **** 0.06
195 H 194.085522372351 0.9641339911400593 17.517822912179284 H 0.0 **** 0.06
196 C 14.898943620855547 80.35337743272027 174.69065929398278 C 0.0 **** -0.24
197 H 15.007619011066069 79.81472909061844 173.74898143076314 H 0.0 **** 0.06
198 H 13.99449150925119 80.96193969003559 174.65828741172334 H 0.0 **** 0.06
199 H 15.765790818708354 80.99829297420729 174.84144877706603 H 0.0 **** 0.06
200 H 14.829905351167639 79.64019857313977 175.51124639324996 H 0.0 **** 0.06
201 C 49.06591244221302 42.79822013099076 5.77379239139735 C 0.0 **** -0.24
202 H 48.55814906836257 41.86936888481944 5.514276908046185 H 0.0 **** 0.06
203 H 50.11426312379207 42.73212997757389 5.48269874753511 H 0.0 **** 0.06
204 H 48.99667535655226 42.96184245018752 6.849193028925669 H 0.0 **** 0.06
205 H 48.59351297027726 43.62879417214319 5.248414356810088 H 0.0 **** 0.06
206 C 212.90038921863902 25.97077985547031 210.6104268198016 C 0.0 **** -0.24
207 H 212.54624365945583 25.67175533076066 211.5973664497696 H 0.0 **** 0.06
208 H 212.6165201008171 27.005374257932488 210.42081061824013 H 0.0 **** 0.06
209 H 212.4528286059582 25.325837644740048 209.85387700850643 H 0.0 **** 0.06
210 H 213.98562706685595 25.877193077248904 210.57168542333613 H 0.0 **** 0.06
211 C 158.31674892331253 180.0328571504005 111.22132957392327 C 0.0 **** -0.24
212 H 158.8729760155747 179.09912984315798 111.3049077274413 H 0.0 **** 0.06
213 H 158.97244593623822 180.8686829494967 111.46366657431173 H 0.0 **** 0.06
214 H 157.47524529760648 180.01748128570551 111.91381191864835 H 0.0 **** 0.06
215 H 157.94581667365892 180.1453869330125 110.20250874341534 H 0.0 **** 0.06
216 C 85.07825076485423 131.58307887690745 1.1407967942865298 C 0.0 **** -0.24
217 H 85.59528192170384 132.01933736086724 0.2863666431970273 H 0.0 **** 0.06
218 H 85.12881147941297 130.49587391892388 1.0804348557533388 H 0.0 **** 0.06
219 H 84.03501553261353 131.90043982140287 1.1349778764676586 H 0.0 **** 0.06
220 H 85.55432628740388 131.91849197451845 2.0629804712988147 H 0.0 **** 0.06
221 C 37.920765555061976 43.90524689296822 15.520507382944857 C 0.0 **** -0.24
222 H 37.3470245734529 43.38542495359329 14.753384834611495 H 0.0 **** 0.06
223 H 38.98252435863617 43.850955864217184 15.278546015544705 H 0.0 **** 0.06
224 H 37.74373572938701 43.43447883012189 16.487750085139865 H 0.0 **** 0.06
225 H 37.60975536167567 44.94873212605083 15.562122156612404 H 0.0 **** 0.06
226 C 56.653232733061486 61.34367614473476 151.5242597349332 C 0.0 **** -0.24
227 H 57.28720270711233 60.524789226365755 151.18571749789103 H 0.0 **** 0.06
228 H 55.657589245186415 61.233813062423195 151.09447058061144 H 0.0 **** 0.06
229 H 57.08509062452276 62.29212577357859 151.20492819643277 H 0.0 **** 0.06
230 H 56.584445575987104 61.32418071974163 152.61184459278064 H 0.0 **** 0.06
231 C 223.0029013588258 93.1165399939118 80.47091929521429 C 0.0 **** -0.24
232 H 222.62086923324978 93.05418449949312 81.48994619272872 H 0.0 **** 0.06
233 H 223.60253303220867 94.02057082686119 80.36344520013287 H 0.0 **** 0.06
234 H 222.16778156518194 93.14932416723141 79.77123887044118 H 0.0 **** 0.06
235 H 223.61998494385386 92.24276960729736 80.26020210291719 H 0.0 **** 0.06
236 C 103.7873118506678 177.28888662896057 79.70164569614442 C 0.0 **** -0.24
237 H 104.08778904414359 176.36828832205765 80.19949985015575 H 0.0 **** 0.06
238 H 104.65153491435993 177.73361892501737 79.20683536506613 H 0.0 **** 0.06
239 H 103.3901049930029 177.98792940825285 80.43785998379212 H 0.0 **** 0.06
240 H 103.01866788579667 177.06722342785025 78.9608431207117 H 0.0 **** 0.06
241 C 80.12136204083717 198.36707262054773 127.82565488489274 C 0.0 **** -0.24
242 H 80.14327484889972 197.49944344706705 127.16568214132502 H 0.0 **** 0.06
243 H 80.88400902865595 198.25521150699285 128.59785580112887 H 0.0 **** 0.06
244 H 79.14010383860361 198.44380706462732 128.29177366207395 H 0.0 **** 0.06
245 H 80.32131054278753 199.26820631500237 127.24641035542669 H 0.0 **** 0.06
246 C 84.92855269376378 220.36710666943668 204.1805258365439 C 0.0 **** -0.24
247 H 85.61790942154079 220.07297699806333 204.97199068587074 H 0.0 **** 0.06
248 H 84.1490127008264 219.6120263970364 204.07877245096952 H 0.0 **** 0.06
249 H 85.47213755783429 220.45913003415342 203.24092764995248 H 0.0 **** 0.06
250 H 84.47452023579746 221.326063741817 204.43275081896658 H 0.0 **** 0.06
251 C 157.71026475692545 144.04464845419224 125.93539735645473 C 0.0 **** -0.24
252 H 158.37650858516528 143.83798108579856 125.09847602276875 H 0.0 **** 0.06
253 H 157.96405080120292 145.0108630889935 126.37113866710376 H 0.0 **** 0.06
254 H 157.82256278060498 143.2646162312995 126.68974175631257 H 0.0 **** 0.06
255 H 156.6791564900658 144.06335349533984 125.5833924899168 H 0.0 **** 0.06
256 C 63.84737919755162 107.48949454848113 159.32007441925956 C 0.0 **** -0.24
257 H 64.30169653926271 106.54667586976538 159.62215594163806 H 0.0 **** 0.06
258 H 62.91755718597568 107.29026399193563 158.7872153552141 H 0.0 **** 0.06
259 H 64.53243009720484 108.02999067574328 158.66714964040878 H 0.0 **** 0.06
260 H 63.637418512603205 108.09181221123268 160.20427039217364 H 0.0 **** 0.06
261 C 33.19303351336785 33.80121508633829 177.85671494257895 C 0.0 **** -0.24
262 H 32.74686855135187 32.98155372068706 177.29398175868107 H 0.0 **** 0.06
263 H 34.27661815402004 33.68757428168547 177.8666474155533 H 0.0 **** 0.06
264 H 32.816578434651234 33.78779771680183 178.87864796331675 H 0.0 **** 0.06
265 H 32.93141771574679 34.74904959130414 177.38550108220142 H 0.0 **** 0.06
266 C 114.31161265706135 101.7231909765637 135.3040322196305 C 0.0 **** -0.24
267 H 115.33228407959731 101.38033240918358 135.47512992229346 H 0.0 **** 0.06
268 H 113.9517247168275 102.24693082559585 136.18979619099403 H 0.0 **** 0.06
269 H 113.67043454286997 100.8657428255755 135.10225795726853 H 0.0 **** 0.06
270 H 114.29389118951073 102.3992172641093 134.44854639993758 H 0.0 **** 0.06
271 C 189.2699299277303 119.43557870486961 6.40947595662621 C 0.0 **** -0.24
272 H 188.42325047927554 119.26478828995533 7.074127076998536 H 0.0 **** 0.06
273 H 189.37632774674148 118.5876014816316 5.732822645523839 H 0.0 **** 0.06
274 H 190.17900728731547 119.54479595549364 7.000904325789108 H 0.0 **** 0.06
275 H 189.10065576472897 120.34412579658971 5.831990022561385 H 0.0 **** 0.06
276 C 213.44716507083947 41.072722077468 110.86259554735872 C 0.0 **** -0.24
277 H 214.39878831897312 40.80069834876511 111.31798861123431 H 0.0 **** 0.06
278 H 212.6529282785608 40.99286334468181 111.60449720177277 H 0.0 **** 0.06
279 H 213.23726488978104 40.400240883866616 110.03092762930785 H 0.0 **** 0.06
280 H 213.50059344396067 42.09829723160564 110.49613464972865 H 0.0 **** 0.06
281 C 201.56818087717562 77.49803064344798 38.88153567561615 C 0.0 **** -0.24
282 H 201.7838580508349 76.45166158409259 39.09843823631593 H 0.0 **** 0.06
283 H 200.8306787185515 77.55809411247833 38.08131038697837 H 0.0 **** 0.06
284 H 202.48469999368967 78.00106687643509 38.57135695660847 H 0.0 **** 0.06
285 H 201.17497815276369 77.98085249519931 39.77664195656838 H 0.0 **** 0.06
286 C 191.53852665333096 184.34014360655266 169.57949097731182 C 0.0 **** -0.24
287 H 191.83495921213796 184.93433393878664 170.44336084452434 H 0.0 **** 0.06
288 H 192.00053842817084 183.35416349856172 169.64096396447653 H 0.0 **** 0.06
289 H 191.86597059876198 184.83929077589625 168.66654292187604 H 0.0 **** 0.06
290 H 190.45446954767198 184.2328376104332 169.56629355693966 H 0.0 **** 0.06
291 C 167.16871679909568 23.978612450610257 104.3559790958291 C 0.0 **** -0.24
292 H 166.58025397346307 23.28585784310414 103.75428803978969 H 0.0 **** 0.06
293 H 166.97401139268501 23.7961702209669 105.41324832146734 H 0.0 **** 0.06
294 H 166.8893251664764 25.00266541023163 104.10592223837577 H 0.0 **** 0.06
295 H 168.2282361775731 23.829158454702423 104.14982684114426 H 0.0 **** 0.06
296 C 79.8532513574904 113.68603065676211 81.6403390756119 C 0.0 **** -0.24
297 H 79.32197044924288 113.15034826124855 80.85392472398959 H 0.0 **** 0.06
298 H 79.95970750452841 114.73322606791442 81.35795560465272 H 0.0 **** 0.06
299 H 80.84069427669039 113.2444093241607 81.77712962940666 H 0.0 **** 0.06
300 H 79.29148573305739 113.6159757104709 82.57184981506327 H 0.0 **** 0.06
301 C 38.60890337272437 122.39896761449674 237.77641013836848 C 0.0 **** -0.24
302 H 38.8572153896487 123.44390252816413 237.96809675453886 H 0.0 **** 0.06
303 H 37.52588889107389 122.28972784803463 237.7137772270874 H 0.0 **** 0.06
304 H 38.99109585105472 121.78046748874416 238.58859797043903 H 0.0 **** 0.06
305 H 39.060663469035575 122.08525479366685 236.8363140620183 H 0.0 **** 0.06
306 C 216.79515265313483 81.30678980271438 106.4221989409352 C 0.0 **** -0.24
307 H 216.90671437931343 82.05407820343822 107.20697380250547 H 0.0 **** 0.06
308 H 217.77273007039935 80.89120833279878 106.17454591813484 H 0.0 **** 0.06
309 H 216.36282380719052 81.77078917579374 105.53633613629725 H 0.0 **** 0.06
310 H 216.13946514897393 80.50849561901506 106.77073425880437 H 0.0 **** 0.06
311 C 18.563335780103614 124.88476233981788 224.94145738808734 C 0.0 **** -0.24
312 H 18.560844741298382 124.79221298424793 226.02788869671767 H 0.0 **** 0.06
313 H 19.245910169835298 125.68284269011744 224.64754492335138 H 0.0 **** 0.06
314 H 17.557394074195827 125.12032376641497 224.59494525036024 H 0.0 **** 0.06
315 H 18.890588621441168 123.94434780793969 224.49801894229134 H 0.0 **** 0.06
316 C 172.97131831771642 147.0429646960809 163.99599852653307 C 0.0 **** -0.24
317 H 172.88057892473097 147.993818881457 164.5202982894946 H 0.0 **** 0.06
318 H 173.4611234796978 146.3161589988203 164.64359944170113 H 0.0 **** 0.06
319 H 173.56407765745476 147.1824028258199 163.0915263325336 H 0.0 **** 0.06
320 H 171.9792855252158 146.680378980532 163.72653404358752 H 0.0 **** 0.06
321 C 51.1576486411373 203.12306638475 171.34188436823015 C 0.0 **** -0.24
322 H 51.52618350056788 204.0438245142533 171.79386234490136 H 0.0 **** 0.06
323 H 51.419109557057354 203.1091406488668 170.28273525016903 H 0.0 **** 0.06
324 H 50.07487586586578 203.0729983017439 171.44998089225467 H 0.0 **** 0.06
325 H 51.61293587539005 202.26716081663668 171.8392381188686 H 0.0 **** 0.06
326 C 65.60225141666959 4.821981342358782 122.49023144491687 C 0.0 **** -0.24
327 H 65.09270420790725 5.762204248962718 122.28147539455955 H 0.0 **** 0.06
328 H 65.47867800136115 4.567758653829117 123.54374509986218 H 0.0 **** 0.06
329 H 66.66286553168541 4.9255316155449975 122.26292416142527 H 0.0 **** 0.06
330 H 65.17370027417161 4.03149914317143 121.8726657418197 H 0.0 **** 0.06
331 C 78.39766793242194 97.26453362654482 37.46239950782902 C 0.0 **** -0.24
332 H 78.3338315753029 96.21831987109528 37.16342414812172 H 0.0 **** 0.06
333 H 77.39732331226259 97.64619063793396 37.664955990319214 H 0.0 **** 0.06
334 H 78.85336014904505 97.84395563045237 36.65900836949007 H 0.0 **** 0.06
335 H 79.00872222638134 97.34811363931229 38.36217871329646 H 0.0 **** 0.06
336 C 41.16526584822432 210.1405604112703 198.56451662757775 C 0.0 **** -0.24
337 H 40.72665964084753 209.64220590771114 197.69932187245405 H 0.0 **** 0.06
338 H 41.97833779289131 209.53121858990647 198.96107323332558 H 0.0 **** 0.06
339 H 40.40318264665123 210.27437706344168 199.33161691891712 H 0.0 **** 0.06
340 H 41.55308837383649 211.1133584470766 198.26410819168524 H 0.0 **** 0.06
341 C 150.32220799900153 180.30499326791997 13.392242499816945 C 0.0 **** -0.24
342 H 150.50515237750602 181.37953885640894 13.363368464010506 H 0.0 **** 0.06
343 H 150.65200524256736 179.8550317778418 12.455251029646178 H 0.0 **** 0.06
344 H 149.25679376669018 180.1218706071211 13.528408445580595 H 0.0 **** 0.06
345 H 150.87507283207344 179.864606603036 14.221043208851597 H 0.0 **** 0.06
346 C 143.42152432750783 80.31606169507785 83.888874901469 C 0.0 **** -0.24
347 H 142.4670323149431 80.07799287662849 83.41893255467437 H 0.0 **** 0.06
348 H 143.40800634776056 81.35003752312443 84.2338007222628 H 0.0 **** 0.06
349 H 144.22469367599902 80.18442124525185 83.16443625666298 H 0.0 **** 0.06
350 H 143.5833184127197 79.65036164104174 84.73751539952858 H 0.0 **** 0.06
351 C 221.637657537696 193.50641997066595 77.64285353110924 C 0.0 **** -0.24
352 H 221.00667637747244 194.3653122501707 77.41473208436608 H 0.0 **** 0.06
353 H 221.0523869283659 192.59083336225424 77.5474802473033 H 0.0 **** 0.06
354 H 222.01383598070507 193.5929522919106 78.6623512054999 H 0.0 **** 0.06
355 H 222.4753679943509 193.4770219569939 76.94732315798555 H 0.0 **** 0.06
356 C 150.47133217822537 127.50350250310083 167.36775329428767 C 0.0 **** -0.24
357 H 150.8500272224484 126.74868315920034 166.6794049960175 H 0.0 **** 0.06
358 H 151.1670150657055 127.61773234335311 168.19875355161193 H 0.0 **** 0.06
359 H 149.49783859023947 127.19298535882353 167.7485982976003 H 0.0 **** 0.06
360 H 150.37002203427602 128.45453129833993 166.84515779898024 H 0.0 **** 0.06
361 C 147.8976926773223 137.12080452972984 67.49360297455232 C 0.0 **** -0.24
362 H 148.31343238920283 137.29780600326725 66.5021779750945 H 0.0 **** 0.06
363 H 146.8412325645291 136.86989933736194 67.40443923220073 H 0.0 **** 0.06
364 H 148.0078600960801 138.019596863616 68.09984388665373 H 0.0 **** 0.06
365 H 148.42954156964944 136.29536116713612 67.9680643448672 H 0.0 **** 0.06
366 C 176.39676423145903 212.1259527537099 150.8326698149647 C 0.0 **** -0.24
367 H 177.38103921185825 212.50071954989505 151.11509182069875 H 0.0 **** 0.06
368 H 176.35057318271726 211.05320031347483 151.01700686073178 H 0.0 **** 0.06
369 H 176.22342568124458 212.32156487697927 149.77388550015368 H 0.0 **** 0.06
370 H 175.6329858410706 212.6305379496364 151.42427856924184 H 0.0 **** 0.06
371 C 36.343867912018126 166.81609136287386 9.528843744637626 C 0.0 **** -0.24
372 H 36.5572091054637 165.74751129642775 9.503491328021994 H 0.0 **** 0.06
373 H 36.87618755947918 167.27370371208988 10.362891886422531 H 0.0 **** 0.06
374 H 35.27133211724043 166.96917765185444 9.65221770760148 H 0.0 **** 0.06
375 H 36.67013906788351 167.27321717389353 8.594116134671495 H 0.0 **** 0.06
376 C 133.83466059392816 67.90256620633403 208.01272651746783 C 0.0 **** -0.24
377 H 133.30517776781073 67.35831924997979 207.23110336629455 H 0.0 **** 0.06
378 H 133.77863922504417 67.34300539458397 208.94667719989633 H 0.0 **** 0.06
379 H 133.37498957697557 68.88147625790756 208.14739363376654 H 0.0 **** 0.06
380 H 134.8784945593427 68.02711001104845 207.72545650902023 H 0.0 **** 0.06
381 C 41.74471184449693 218.78051237253666 56.23446880399629 C 0.0 **** -0.24
382 H 41.992656817643464 217.72287636804305 56.15248143553231 H 0.0 **** 0.06
383 H 42.21000622963085 219.1940341419857 57.129810895309305 H 0.0 **** 0.06
384 H 40.66232683688585 218.89588519963672 56.30098486752357 H 0.0 **** 0.06
385 H 42.11294020272375 219.3096484980514 55.35559941391804 H 0.0 **** 0.06
386 C 123.16641363817209 189.2434493329621 76.76404584561362 C 0.0 **** -0.24
387 H 122.3994220410761 188.59292379812325 76.34449372545092 H 0.0 **** 0.06
388 H 124.08176804678294 188.6738170508642 76.91737854629912 H 0.0 **** 0.06
389 H 122.82070017357998 189.64225282301635 77.71843337622099 H 0.0 **** 0.06
390 H 123.36001076560129 190.0665040358041 76.07573655252946 H 0.0 **** 0.06
391 C 196.16112741379737 32.21260077354273 189.51906661450812 C 0.0 **** -0.24
392 H 196.24395178298528 31.541577177028586 190.37504152221362 H 0.0 **** 0.06
393 H 195.63218450873643 33.11806062260135 189.81828968247135 H 0.0 **** 0.06
394 H 195.6107473845663 31.716344374846955 188.72082857834025 H 0.0 **** 0.06
395 H 197.15883231778372 32.474547459787686 189.16617225115098 H 0.0 **** 0.06
396 C 164.41124164666527 193.44427534455917 123.04587832890158 C 0.0 **** -0.24
397 H 164.64793657760876 194.508126055134 123.07615621417435 H 0.0 **** 0.06
398 H 165.33048738052923 192.87157810952232 122.92267635043183 H 0.0 **** 0.06
399 H 163.74347425045863 193.24435386526386 122.20843241009797 H 0.0 **** 0.06
400 H 163.92346151274168 193.15395941564208 123.97632755906969 H 0.0 **** 0.06
401 C 193.85317404849425 138.08346544879322 226.18488759535114 C 0.0 **** -0.24
402 H 194.40670804269496 137.51716633766983 225.43602245327037 H 0.0 **** 0.06
403 H 192.91476098605636 138.43341308592477 225.75487463798316 H 0.0 **** 0.06
404 H 194.44781991534413 138.93794266956337 226.50617489693155 H 0.0 **** 0.06
405 H 193.6440943441109 137.44301766694213 227.04284732826247 H 0.0 **** 0.06
406 C 15.116617579865505 23.23408314529553 184.05742233127387 C 0.0 **** -0.24
407 H 14.086107034113724 23.483168753905318 183.80552763632477 H 0.0 **** 0.06
408 H 15.130559162754224 22.609427471370324 184.95167761340736 H 0.0 **** 0.06
409 H 15.675198080930187 24.150209940576715 184.24601998726513 H 0.0 **** 0.06
410 H 15.573136752172985 22.69295769150331 183.22833966801545 H 0.0 **** 0.06
411 C 50.875803794064495 179.35204928218693 141.62059884327985 C 0.0 **** -0.24
412 H 51.88920109639632 179.417678465764 142.0159522066258 H 0.0 **** 0.06
413 H 50.174087757757036 179.7510217440005 142.35287552961012 H 0.0 **** 0.06
414 H 50.6335631766039 178.30924377359273 141.4144126925532 H 0.0 **** 0.06
415 H 50.80789336951442 179.92957137072344 140.69871491366777 H 0.0 **** 0.06
416 C 51.36812185832963 225.93210904697628 53.000024387622176 C 0.0 **** -0.24
417 H 51.651247862902366 226.75993803201885 52.35095166981242 H 0.0 **** 0.06
418 H 51.491376071322065 226.22874122523748 54.04098947160804 H 0.0 **** 0.06
419 H 52.00368743235528 225.07198310482045 52.78936510314023 H 0.0 **** 0.06
420 H 50.32663115291308 225.66719004194294 52.818118920111345 H 0.0 **** 0.06
421 C 1.9114071390515193 192.42011535941566 175.59481434642663 C 0.0 **** -0.24
422 H 1.1306881229985635 192.9581050111302 175.0569291139097 H 0.0 **** 0.06
423 H 2.8829194429274736 192.6695871278431 175.16826042435974 H 0.0 **** 0.06
424 H 1.7399454553032854 191.34776249783405 175.50596733265675 H 0.0 **** 0.06
425 H 1.8914822749065792 192.70662502402527 176.6466759288932 H 0.0 **** 0.06
426 C 89.9748522940614 147.24315213959227 130.66057713352325 C 0.0 **** -0.24
427 H 90.63768055830457 147.35200216958486 131.51901928780163 H 0.0 **** 0.06
428 H 90.52753491485444 146.8058648251743 129.8283396037203 H 0.0 **** 0.06
429 H 89.59481477097128 148.2219569646595 130.3695614028229 H 0.0 **** 0.06
430 H 89.14218467695108 146.5929801495429 130.92568762876374 H 0.0 **** 0.06
431 C 52.999057680555566 114.26153346141103 185.97817403849612 C 0.0 **** -0.24
432 H 52.82131894376475 114.0627358950506 187.034593476348 H 0.0 **** 0.06
433 H 52.36938050711599 115.09092508878342 185.65441831970634 H 0.0 **** 0.06
434 H 52.756943230327764 113.37256322193065 185.39528804567186 H 0.0 **** 0.06
435 H 54.046631323972576 114.52135210924948 185.82869730887404 H 0.0 **** 0.06
436 C 57.20904226627863 128.92648638255966 107.4098446468681 C 0.0 **** -0.24
437 H 56.25867080289177 129.16845021870003 107.88516048764663 H 0.0 **** 0.06
438 H 57.07130720514263 128.86808782914997 106.32962187250976 H 0.0 **** 0.06
439 H 57.566764169634666 127.96633991253151 107.7829724727282 H 0.0 **** 0.06
440 H 57.93910106984387 129.70159025498975 107.64293196811136 H 0.0 **** 0.06
441 C 128.91386780293755 207.3089659869115 25.938176178163715 C 0.0 **** -0.24
442 H 128.11414881256925 207.3180233794625 26.67800660347912 H 0.0 **** 0.06
443 H 128.7648053692874 206.4733931471846 25.252847783406523 H 0.0 **** 0.06
444 H 129.87395701625687 207.19906196400763 26.44235409985005 H 0.0 **** 0.06
445 H 128.90307637770573 208.24424095635248 25.378303114168958 H 0.0 **** 0.06
446 C 56.49153319847517 164.3439988279304 145.2430329923285 C 0.0 **** -0.24
447 H 57.47347424061587 164.04115325086954 145.6058854557811 H 0.0 **** 0.06
448 H 55.993033694401646 164.946450809318 146.00290431757813 H 0.0 **** 0.06
449 H 55.89328348963551 163.45751436908816 145.03095007144296 H 0.0 **** 0.06
450 H 56.60668511221195 164.93145197074338 144.3316497472746 H 0.0 **** 0.06
451 C 222.35180426710184 218.58719372841267 81.3243867733772 C 0.0 **** -0.24
452 H 221.33036102059208 218.21382369100144 81.24595791282806 H 0.0 **** 0.06
453 H 223.04399451000856 217.74584360958568 81.3668039984907 H 0.0 **** 0.06
454 H 222.45110501524758 219.18686055984796 82.22837991922816 H 0.0 **** 0.06
455 H 222.57975705024504 219.20185225364463 80.45343097811508 H 0.0 **** 0.06
456 C 173.24690028641194 209.0468212093972 121.3299178658506 C 0.0 **** -0.24
457 H 173.03898935220178 209.94527123936334 121.91116923831686 H 0.0 **** 0.06
458 H 174.09627353604594 208.52051123830708 121.76645935870593 H 0.0 **** 0.06
459 H 173.48100144702022 209.32454262878895 120.3025732198193 H 0.0 **** 0.06
460 H 172.37147743573644 208.3973717107661 121.34081520100497 H 0.0 **** 0.06
461 C 60.19341063985601 164.41757525905976 132.04755004476814 C 0.0 **** -0.24
462 H 60.88495857062864 163.9558024389268 132.75115282742829 H 0.0 **** 0.06
463 H 59.788608329400546 163.6544923282729 131.38254470488792 H 0.0 **** 0.06
464 H 60.721105389397906 165.1688456698218 131.45966179521426 H 0.0 **** 0.06
465 H 59.379459308200154 164.89126412193548 132.5959747485343 H 0.0 **** 0.06
466 C 170.62619049156115 103.99467627784824 66.99947585426747 C 0.0 **** -0.24
467 H 169.95465526234227 103.60585781791772 66.23358472865988 H 0.0 **** 0.06
468 H 170.0846001268209 104.69331103204658 67.63722025945935 H 0.0 **** 0.06
469 H 171.46025877780346 104.50960688705462 66.52242121003727 H 0.0 **** 0.06
470 H 171.00583165418263 103.16981570965388 67.60230103453375 H 0.0 **** 0.06
471 C 170.0332153111496 237.74942192261716 32.32038922424488 C 0.0 **** -0.24
472 H 170.97022928412133 237.96717721556172 32.83309383473518 H 0.0 **** 0.06
473 H 169.24036290894435 238.3734082052594 32.73316611184656 H 0.0 **** 0.06
474 H 169.77917887385624 236.69925215432102 32.45852502505612 H 0.0 **** 0.06
475 H 170.14453509567534 237.95982076712733 31.256602214170357 H 0.0 **** 0.06
476 C 229.77508442161786 104.56858763450572 121.80899269127258 C 0.0 **** -0.24
477 H 229.91536064435914 105.60792542543973 121.5125317264295 H 0.0 **** 0.06
478 H 229.55090748019649 103.9664445316917 120.92787864510956 H 0.0 **** 0.06
479 H 228.9471322993966 104.50092238117975 122.51557409345517 H 0.0 **** 0.06
480 H 230.68598500992155 104.19889719876778 122.27972687106211 H 0.0 **** 0.06
481 C 144.1525172476482 233.00079758897255 152.91503802097174 C 0.0 **** -0.24
482 H 143.28010369671202 233.61617671983055 153.13627250454812 H 0.0 **** 0.06
483 H 144.6935885314653 233.42971054617578 152.07107823597497 H 0.0 **** 0.06
484 H 143.83033679563064 231.99003053196145 152.66560811579308 H 0.0 **** 0.06
485 H 144.80494437719486 232.9703980205599 153.78701638338836 H 0.0 **** 0.06
486 C 79.1126877268915 111.56097877176285 204.98599087357724 C 0.0 **** -0.24
487 H 79.28852299294331 111.38883240675287 206.04784027769577 H 0.0 **** 0.06
488 H 78.26035435863523 112.22820470604168 204.862824568649 H 0.0 **** 0.06
489 H 78.90633384249335 110.61124965283821 204.4939672664055 H 0.0 **** 0.06
490 H 79.99835095790087 112.01490713062933 204.54093665282653 H 0.0 **** 0.06
491 C 68.07495561937034 64.54064090510073 175.61440808961748 C 0.0 **** -0.24
492 H 68.20366501168988 64.47621104192663 174.53418623778026 H 0.0 **** 0.06
493 H 67.26805195985023 65.23855385183361 175.84273372017677 H 0.0 **** 0.06
494 H 69.00060239594038 64.89339685444105 176.07044522105392 H 0.0 **** 0.06
495 H 67.82636747985279 63.556571621936286 176.01021630037764 H 0.0 **** 0.06
496 C 14.288074473027592 124.97425504371748 149.77347305193624 C 0.0 **** -0.24
497 H 13.620185096543395 125.58090742448502 150.38523218850605 H 0.0 **** 0.06
498 H 15.251979628892698 124.87983249927413 150.2731367374877 H 0.0 **** 0.06
499 H 14.426300889329482 125.45162907926937 148.80372048021903 H 0.0 **** 0.06
500 H 13.85291599384503 123.98450567463539 149.63217598359023 H 0.0 **** 0.06
501 C 58.20886273714103 53.59352823291894 178.80095630240442 C 0.0 **** -0.24
502 H 58.89561161118621 53.23946384155269 178.0325150529718 H 0.0 **** 0.06
503 H 58.24955387934793 52.9245642636225 179.66037238585395 H 0.0 **** 0.06
504 H 57.194525433494135 53.61174576700435 178.40141590124148 H 0.0 **** 0.06
505 H 58.495726767656436 54.59915900323844 179.10895038378777 H 0.0 **** 0.06
506 C 180.76107686586244 40.14209028590068 151.64685129210966 C 0.0 **** -0.24
507 H 181.36071617761576 40.099936736023494 150.73757556752446 H 0.0 **** 0.06
508 H 179.7152091563473 40.30331041418634 151.38486965722382 H 0.0 **** 0.06
509 H 181.1092898749984 40.9626882946324 152.2737006936699 H 0.0 **** 0.06
510 H 180.8592574926828 39.20222129580358 152.1902944052103 H 0.0 **** 0.06
511 C 113.70197004424904 74.5771531853297 146.40178318865335 C 0.0 **** -0.24
512 H 114.18365141319055 73.66299985946247 146.05379564382733 H 0.0 **** 0.06
513 H 112.64720085977041 74.56071153508799 146.12572845215038 H 0.0 **** 0.06
514 H 114.18477059480364 75.43880874940072 145.94196379430625 H 0.0 **** 0.06
515 H 113.79294524704386 74.64485703326415 147.48563293170787 H 0.0 **** 0.06
516 C 181.34664337968923 165.98568137171281 178.95171815098882 C 0.0 **** -0.24
517 H 181.42499234774056 165.36542757476747 179.8444791679599 H 0.0 **** 0.06
518 H 182.31425585058184 166.0212816011769 178.44942011610178 H 0.0 **** 0.06
519 H 181.04682835412984 166.9945815604771 179.2352951765254 H 0.0 **** 0.06
520 H 180.60335110092558 165.56054055036375 178.2774448850448 H 0.0 **** 0.06
521 C 43.87618235621831 198.1047560243099 49.39053904540927 C 0.0 **** -0.24
522 H 43.66960290414788 199.13602328568678 49.10388884549312 H 0.0 **** 0.06
523 H 44.94449476262834 197.9099829989511 49.30044113985318 H 0.0 **** 0.06
524 H 43.32675769808425 197.42876805206225 48.734085397700625 H 0.0 **** 0.06
525 H 43.562071366536046 197.94495642130946 50.421449289388306 H 0.0 **** 0.06
526 C 97.19859349181553 104.06190534297588 49.497212304187656 C 0.0 **** -0.24
527 H 97.24798332370443 103.02334427828885 49.82372129967263 H 0.0 **** 0.06
528 H 96.16170061743247 104.39784856718978 49.5120745856313 H 0.0 **** 0.06
529 H 97.59214944361122 104.1432876640003 48.484021207047476 H 0.0 **** 0.06
530 H 97.79167218935723 104.68327199419724 50.167923649203715 H 0.0 **** 0.06
531 C 224.3988291034753 88.15005479947237 178.6120218509123 C 0.0 **** -0.24
532 H 223.77448968671177 87.44373751397328 178.06544271902885 H 0.0 **** 0.06
533 H 225.42112495214928 88.09639336470943 178.23678296196107 H 0.0 **** 0.06
534 H 224.38650148868413 87.90113438086647 179.67291356042807 H 0.0 **** 0.06
535 H 224.01258349352744 89.15991199726798 178.4710241720063 H 0.0 **** 0.06
536 C 45.84863643771331 211.5432957088689 103.22610127781718 C 0.0 **** -0.24
537 H 44.847129505571445 211.91818257042164 103.01464613697931 H 0.0 **** 0.06
538 H 46.396100218213576 212.28174311415202 103.81315870504767 H 0.0 **** 0.06
539 H 46.37438280513817 211.3634540265758 102.28795400632885 H 0.0 **** 0.06
540 H 45.77674195846913 210.61234638852838 103.7870666068986 H 0.0 **** 0.06
541 C 153.94167825067285 137.50419732269876 121.99064014539522 C 0.0 **** -0.24
542 H 153.6992989479836 137.03950122981823 122.94602612897157 H 0.0 **** 0.06
543 H 153.9052843095367 136.75320458996865 121.20102380034922 H 0.0 **** 0.06
544 H 154.9433309902103 137.93182009793543 122.03994658898421 H 0.0 **** 0.06
545 H 153.22036124753834 138.292798301025 121.77737307611628 H 0.0 **** 0.06
546 C 240.41684631246397 202.13688715997432 217.68122786352313 C 0.0 **** -0.24
547 H 239.4335722067337 202.24111055323772 217.22354011269746 H 0.0 **** 0.06
548 H 241.17163353981198 202.56421531367852 217.02062399927604 H 0.0 **** 0.06
549 H 240.63113573045797 201.08045767531976 217.84386045976603 H 0.0 **** 0.06
550 H 240.4301220669748 202.66187488816945 218.63651484195552 H 0.0 **** 0.06
551 C 210.6461433437415 166.93433506988893 55.901916089684136 C 0.0 **** -0.24
552 H 210.00516299011946 167.46940038091319 55.20175620710481 H 0.0 **** 0.06
553 H 211.3965915391271 167.61681641973163 56.30129972192108 H 0.0 **** 0.06
554 H 211.14129404930554 166.1119353208928 55.38534179373514 H 0.0 **** 0.06
555 H 210.0422219030571 166.53986356290554 56.719026052719045 H 0.0 **** 0.06
556 C 193.0915862117468 104.67060833798925 84.42980050389656 C 0.0 **** -0.24
557 H 193.07567009689342 105.75768616897932 84.3578697970496 H 0.0 **** 0.06
558 H 193.94716933500325 104.35802058983151 85.02725173547714 H 0.0 **** 0.06
559 H 193.1691015927401 104.24236753167682 83.42979662426927 H 0.0 **** 0.06
560 H 192.17171861008688 104.32485856424955 84.90304280290519 H 0.0 **** 0.06
561 C 233.8246473416151 17.446740163682193 16.077388696266 C 0.0 **** -0.24
562 H 234.18949161279306 18.47377978895547 16.09458858233053 H 0.0 **** 0.06
563 H 233.16980664977058 17.307750566263863 15.216966629688372 H 0.0 **** 0.06
564 H 233.26990614984203 17.243097366856816 16.992657170012478 H 0.0 **** 0.06
565 H 234.6703465909235 16.762208654263986 16.005097823490942 H 0.0 **** 0.06
566 C 184.43546867181107 24.923365585457105 192.66653610081147 C 0.0 **** -0.24
567 H 183.78236616911113 25.443988079838505 193.36577132086256 H 0.0 **** 0.06
568 H 184.9922028298753 24.14935861893835 193.19651806256226 H 0.0 **** 0.06
569 H 185.13305351015737 25.633952722471335 192.22401392500416 H 0.0 **** 0.06
570 H 183.8349540937784 24.464936999710304 191.87990781720362 H 0.0 **** 0.06
571 C 61.14591565838222 104.1573208378754 174.55178310518872 C 0.0 **** -0.24
572 H 61.48670691543916 105.17190463732285 174.7564452543005 H 0.0 **** 0.06
573 H 61.28255156081312 103.54241818548414 175.44146446910452 H 0.0 **** 0.06
574 H 61.72265250398064 103.73874750628462 173.72714103511413 H 0.0 **** 0.06
575 H 60.089548947355524 104.17640122445252 174.28241739310764 H 0.0 **** 0.06
576 C 129.3824039938992 43.431037541660416 59.059419630593425 C 0.0 **** -0.24
577 H 128.94642694541562 44.07198056684952 58.2940559218132 H 0.0 **** 0.06
578 H 129.98925102682446 42.65866268397953 58.58543087499754 H 0.0 **** 0.06
579 H 128.58558024105668 42.962855838689904 59.638407006186355 H 0.0 **** 0.06
580 H 130.0078947989661 44.02995689969114 59.72092656092403 H 0.0 **** 0.06
581 C 122.24188945238737 244.563782598847 30.12307977388255 C 0.0 **** -0.24
582 H 123.03513982895768 243.82164444621822 30.217638643658432 H 0.0 **** 0.06
583 H 121.33535024904003 244.08095976990384 29.758708598080204 H 0.0 **** 0.06
584 H 122.55064531304711 245.33720720465328 29.420188059936123 H 0.0 **** 0.06
585 H 122.04850618361061 245.01405575236203 31.096033295265457 H 0.0 **** 0.06
586 C 162.42490948395985 94.95453390339489 189.95463819986946 C 0.0 **** -0.24
587 H 162.665454009928 94.99595315322105 188.89193628789624 H 0.0 **** 0.06
588 H 163.1737161333243 94.35846685775263 190.47417763711292 H 0.0 **** 0.06
589 H 161.44201978132008 94.5013117828681 190.08648325435865 H 0.0 **** 0.06
590 H 162.4159352369794 95.96499539394782 190.36313251667963 H 0.0 **** 0.06
591 C 43.436636716952165 94.95948407732999 196.8509830090292 C 0.0 **** -0.24
592 H 42.8609869182861 94.13417772952644 197.27139866266538 H 0.0 **** 0.06
593 H 43.12643637246023 95.89360016323218 197.31802630674144 H 0.0 **** 0.06
594 H 43.262634586965845 95.013580130533 195.77661927239714 H 0.0 **** 0.06
595 H 44.49814618355842 94.79436764689808 197.03905692736922 H 0.0 **** 0.06
596 C 153.50169463153557 172.1923667929509 70.63795540253182 C 0.0 **** -0.24
597 H 154.06603609093975 172.102715664389 69.70957942034539 H 0.0 **** 0.06
598 H 152.7743806001273 172.99928390418265 70.54372349221853 H 0.0 **** 0.06
599 H 154.18522205229425 172.4128153698595 71.45820308710003 H 0.0 **** 0.06
600 H 152.98279093871432 171.2557665734833 70.83929974684591 H 0.0 **** 0.06
601 C 110.40130014039872 105.93355990615777 89.25484694806212 C 0.0 **** -0.24
602 H 110.24680457958564 105.0262879830967 88.6700637771888 H 0.0 **** 0.06
603 H 110.41189596181152 105.68420623786002 90.31580502638857 H 0.0 **** 0.06
604 H 109.59223179455014 106.63593496560364 89.05473883894646 H 0.0 **** 0.06
605 H 111.35296526334722 106.38632670011435 88.97773093115464 H 0.0 **** 0.06
606 C 119.3474837691239 168.44257023240968 171.6397523073354 C 0.0 **** -0.24
607 H 118.4095133195423 168.10483145491605 172.08138284369443 H 0.0 **** 0.06
608 H 120.05847995496069 168.6755804943235 172.43148913011288 H 0.0 **** 0.06
609 H 119.16486601221885 169.3343430154156 171.04039463046288 H 0.0 **** 0.06
610 H 119.7539189350417 167.654952099424 171.0049029503541 H 0.0 **** 0.06
611 C 75.77133222243609 94.91100620757439 61.62696289122931 C 0.0 **** -0.24
612 H 75.46499806918982 95.8839503342991 62.00952356527824 H 0.0 **** 0.06
613 H 76.76615697042413 94.66975855915447 62.000823637437236 H 0.0 **** 0.06
614 H 75.79047044383296 94.93928475053002 60.536412734403314 H 0.0 **** 0.06
615 H 75.06352541022474 94.151666849029 61.95702168727718 H 0.0 **** 0.06
616 C 190.41369112069896 176.78282690051904 201.16335610343074 C 0.0 **** -0.24
617 H 191.363656485068 176.8458758820072 200.63380706027235 H 0.0 **** 0.06
618 H 190.59721486393897 176.77352544692502 202.23812077316833 H 0.0 **** 0.06
619 H 189.89747506035494 175.86630889879547 200.87504842880386 H 0.0 **** 0.06
620 H 189.796336563364 177.64343855781686 200.905871162762 H 0.0 **** 0.06
621 C 179.39864153239122 229.64794201358393 206.78871349847694 C 0.0 **** -0.24
622 H 179.3937172556368 228.7534756010453 206.16725542275174 H 0.0 **** 0.06
623 H 179.79022353313766 229.401770297825 207.77632303865883 H 0.0 **** 0.06
624 H 178.38148631929687 230.02781579339853 206.88545415458583 H 0.0 **** 0.06
625 H 180.0281432642114 230.4090153281486 206.3272045035774 H 0.0 **** 0.06
626 C 42.32226585934478 114.20988877224579 133.75623084479386 C 0.0 **** -0.24
627 H 41.39783518680211 114.57321596145866 133.30805359430204 H 0.0 **** 0.06
628 H 42.106699688776686 113.34050904428037 134.378222560249 H 0.0 **** 0.06
629 H 42.76136662657838 114.99617134579032 134.3711225506465 H 0.0 **** 0.06
630 H 43.02196303791513 113.93027384122047 132.96957024261016 H 0.0 **** 0.06
631 C 148.68154841665057 20.58955082331235 206.66819347168996 C 0.0 **** -0.24
632 H 149.00384901052314 20.649214324892185 207.70792476701746 H 0.0 **** 0.06
633 H 149.21258104468816 21.340535965386636 206.08113277818615 H 0.0 **** 0.06
634 H 147.6091100201475 20.77456894991215 206.60911940727644 H 0.0 **** 0.06
635 H 148.90209069686512 19.597516668289416 206.27591564560257 H 0.0 **** 0.06
636 C 227.18174073978935 119.41147718571204 56.17111092012715 C 0.0 **** -0.24
637 H 226.95710395043716 118.43581249637944 55.74128271433253 H 0.0 **** 0.06
638 H 227.7395083412835 119.27980407518655 57.09839192693792 H 0.0 **** 0.06
639 H 226.2516293305202 119.94050157637795 56.37742748274189 H 0.0 **** 0.06
640 H 227.7800463095171 119.9895438768639 55.4655572845148 H 0.0 **** 0.06
641 C 27.0177207567493 121.9792903805027 243.8894607750409 C 0.0 **** -0.24
642 H 26.315867819187105 122.81164631814605 243.9488882465294 H 0.0 **** 0.06
643 H 26.623906228293635 121.21991612744321 243.21430047930477 H 0.0 **** 0.06
644 H 27.1555506388614 121.54941174054531 244.88138408038446 H 0.0 **** 0.06
645 H 27.97621692353104 122.33902616391913 243.513982622222 H 0.0 **** 0.06
646 C 166.33019331667666 107.75613102875002 115.08896902102137 C 0.0 **** -0.24
647 H 167.12837577745086 107.56437111846239 114.37170026560267 H 0.0 **** 0.06
648 H 165.42377102147134 108.04379890468167 114.55642570490167 H 0.0 **** 0.06
649 H 166.6297162467542 108.56179435290443 115.75926014544058 H 0.0 **** 0.06
650 H 166.1393118953552 106.85346066103699 115.67011191894863 H 0.0 **** 0.06
651 C 183.44739286542824 106.83406740817531 106.84207438886119 C 0.0 **** -0.24
652 H 183.82984574210093 106.94643532067613 107.85659684741279 H 0.0 **** 0.06
653 H 182.88986525159441 107.72864092860883 106.56411981003828 H 0.0 **** 0.06
654 H 182.79068238986918 105.96638736983667 106.79466917095968 H 0.0 **** 0.06
655 H 184.28190827390074 106.69721364021785 106.15377746455243 H 0.0 **** 0.06
656 C 110.64274657234336 61.63483367755725 110.60568083884536 C 0.0 **** -0.24
657 H 110.25227875852067 62.58361545220467 110.97438885928878 H 0.0 **** 0.06
658 H 109.83926277337932 60.897841232985 110.57577255477037 H 0.0 **** 0.06
659 H 111.43268966254973 61.28454634127846 111.26996185177862 H 0.0 **** 0.06
660 H 111.04675509492372 61.77333168376097 109.60260008954364 H 0.0 **** 0.06
661 C 52.85137585555421 154.81206789299412 232.1694842486835 C 0.0 **** -0.24
662 H 51.92638147781501 155.27767051447788 232.51054168532687 H 0.0 **** 0.06
663 H 53.129397829247296 154.01098584462488 232.8562243215581 H 0.0 **** 0.06
664 H 53.64491643457919 155.558720159864 232.14163986690167 H 0.0 **** 0.06
665 H 52.70380748822046 154.400156347219 231.1716415681588 H 0.0 **** 0.06
666 C 199.44596633442217 8.442601481103821 53.80822513364811 C 0.0 **** -0.24
667 H 199.29352003971837 7.3984808315804855 53.533483849179504 H 0.0 **** 0.06
668 H 200.51370550816276 8.663245964350068 53.818356532324856 H 0.0 **** 0.06
669 H 199.0282139468468 8.621579750307006 54.79892351873289 H 0.0 **** 0.06
670 H 198.94884895812913 9.085755356105992 53.082015813412156 H 0.0 **** 0.06
671 C 232.67521770348196 70.90880671833659 231.13948485334367 C 0.0 **** -0.24
672 H 233.06936119575926 70.20666188762803 231.87406303971002 H 0.0 **** 0.06
673 H 231.80293622801616 70.47383557806776 230.65237737402947 H 0.0 **** 0.06
674 H 233.44042116629828 71.12106910716338 230.39236644612163 H 0.0 **** 0.06
675 H 232.3887913593676 71.83437196717875 231.63884092694832 H 0.0 **** 0.06
676 C 71.70508724928948 47.384393403389524 20.878036079088844 C 0.0 **** -0.24
677 H 72.75261232217534 47.45711914595992 21.17087180011964 H 0.0 **** 0.06
678 H 71.10608508883647 48.04741369274815 21.501707522678004 H 0.0 **** 0.06
679 H 71.36245318225735 46.357033435686006 21.005173685482006 H 0.0 **** 0.06
680 H 71.5999506071696 47.6748992612507 19.83260066510472 H 0.0 **** 0.06
681 C 74.44731214536807 205.1433537781296 242.36405510118368 C 0.0 **** -0.24
682 H 74.25397436309777 205.6760530634039 241.43277987571332 H 0.0 **** 0.06
683 H 73.69397159187636 204.36679321034927 242.50086619578664 H 0.0 **** 0.06
684 H 74.40332213161346 205.8432577613161 243.19865492418037 H 0.0 **** 0.06
685 H 75.43660822107455 204.68717086905542 242.32360759874103 H 0.0 **** 0.06
686 C 234.68733495575793 60.18572947940871 19.146364956293908 C 0.0 **** -0.24
687 H 235.0033642098041 59.14360865943462 19.09472891618431 H 0.0 **** 0.06
688 H 234.59900873430144 60.487001652304826 20.190755274770012 H 0.0 **** 0.06
689 H 233.72197632003736 60.29842040200646 18.65339028660081 H 0.0 **** 0.06
690 H 235.42599402170532 60.81407663008008 18.64857462607793 H 0.0 **** 0.06
691 C 81.68780895716432 55.271804489902905 226.1998383272155 C 0.0 **** -0.24
692 H 82.13136830654872 54.727702154632624 225.36578717494496 H 0.0 **** 0.06
693 H 82.09387643243952 56.282490286497165 226.23135003935818 H 0.0 **** 0.06
694 H 81.91822430843862 54.7572088921967 227.13331393868265 H 0.0 **** 0.06
695 H 80.60617931970441 55.31824250204514 226.0688558150895 H 0.0 **** 0.06
696 C 39.1204447703326 138.0751850089535 176.69363807426433 C 0.0 **** -0.24
697 H 38.20118429377153 138.38830855977696 177.18819583937233 H 0.0 **** 0.06
698 H 38.94473434121305 137.13987509896288 176.16145972622843 H 0.0 **** 0.06
699 H 39.90172796032378 137.92933695548766 177.43878938771016 H 0.0 **** 0.06
700 H 39.431025380259925 138.84322791360773 175.98551919491905 H 0.0 **** 0.06
701 C 194.96204917316354 228.73223568019333 148.01619935793917 C 0.0 **** -0.24
702 H 195.1838919013018 228.04405671178276 148.83093064232065 H 0.0 **** 0.06
703 H 195.56583186036568 228.47309347391112 147.14609053751525 H 0.0 **** 0.06
704 H 195.19353311680976 229.75072232673003 148.3278557440495 H 0.0 **** 0.06
705 H 193.90495465187132 228.662279759796 147.75918785200668 H 0.0 **** 0.06
706 C 63.17391941111944 232.86757661521216 168.25904004789598 C 0.0 **** -0.24
707 H 64.1357702908357 232.790612967531 167.75087367457888 H 0.0 **** 0.06
708 H 62.68659151351241 233.79967656378244 167.97328180440857 H 0.0 **** 0.06
709 H 63.33272562568419 232.85556425494377 169.33791162060442 H 0.0 **** 0.06
710 H 62.544096163824946 232.02527470766574 167.97427394320573 H 0.0 **** 0.06
711 C 242.32535757872787 149.68554072993672 172.28186670095386 C 0.0 **** -0.24
712 H 243.16565589933012 149.0404063908904 172.02460226549934 H 0.0 **** 0.06
713 H 242.18896418944297 150.43271218893412 171.4994606476287 H 0.0 **** 0.06
714 H 242.5286038409426 150.18489546204574 173.2296559105898 H 0.0 **** 0.06
715 H 241.42078916071705 149.08595283569065 172.37347392866786 H 0.0 **** 0.06
716 C 88.65431246870429 113.18007259090624 138.65001764268914 C 0.0 **** -0.24
717 H 87.93909999025757 112.7334367313963 137.95960321304767 H 0.0 **** 0.06
718 H 88.74700380560736 112.54970901644114 139.5354681875041 H 0.0 **** 0.06
719 H 88.30609677710754 114.16970300966642 138.94424039257987 H 0.0 **** 0.06
720 H 89.62535173319239 113.26607295749986 138.16218544338136 H 0.0 **** 0.06
721 C 62.55560720630419 212.69659541739574 120.16127996216812 C 0.0 **** -0.24
722 H 61.81004232767046 212.73416826301693 120.9558967678285 H 0.0 **** 0.06
723 H 62.06189919623117 212.50072613025912 119.20884875559628 H 0.0 **** 0.06
724 H 63.270514211365594 211.899888518554 120.37168357428172 H 0.0 **** 0.06
725 H 63.080512487712525 213.6505776600727 120.11060555076457 H 0.0 **** 0.06
726 C 228.73013543011064 10.745582356283947 106.28509065823295 C 0.0 **** -0.24
727 H 228.62542658768217 10.92269330849831 105.21442995414696 H 0.0 **** 0.06
728 H 227.75153642125548 10.526545870921709 106.71383251547016 H 0.0 **** 0.06
729 H 229.14521127366385 11.633999586000726 106.76138829869313 H 0.0 **** 0.06
730 H 229.39679450278038 9.89933501429411 106.45002907962788 H 0.0 **** 0.06
731 C 82.11117626813174 148.56385198857018 180.84713348694714 C 0.0 **** -0.24
732 H 83.16559284066415 148.8396724314816 180.8188077132573 H 0.0 **** 0.06
733 H 81.55997060754663 149.1627721260325 180.1221006885595 H 0.0 **** 0.06
734 H 81.71518277896004 148.74671694519938 181.84628169294942 H 0.0 **** 0.06
735 H 82.00586985113253 147.50726156969716 180.60190744932476 H 0.0 **** 0.06
736 C 33.07883218485432 128.4277079355927 203.5069556712234 C 0.0 **** -0.24
737 H 32.41873400337414 129.0117770252447 204.14838007067635 H 0.0 **** 0.06
738 H 32.68784830085309 127.41349139445242 203.4122086272703 H 0.0 **** 0.06
739 H 34.07572757817951 128.39408474363006 203.94603040408086 H 0.0 **** 0.06
740 H 33.13025377389425 128.89047083520012 202.52178569569253 H 0.0 **** 0.06
741 C 147.298462317506 103.5301167817199 23.664957028574662 C 0.0 **** -0.24
742 H 146.84354747596782 104.03522073375754 24.517497386228357 H 0.0 **** 0.06
743 H 146.56267257794767 103.43139899271213 22.86679800482358 H 0.0 **** 0.06
744 H 147.64079915835833 102.54047834869695 23.969577843194585 H 0.0 **** 0.06
745 H 148.1471615883691 104.11327457210976 23.308164226050636 H 0.0 **** 0.06
746 C 113.90849110076621 96.14937366945895 69.85588205104222 C 0.0 **** -0.24
747 H 114.40580772586779 95.20519393736092 69.63127041261782 H 0.0 **** 0.06
748 H 114.22069126058855 96.49859123507659 70.84025683951086 H 0.0 **** 0.06
749 H 112.82878977974269 96.00258949598623 69.84671548896765 H 0.0 **** 0.06
750 H 114.18135441487067 96.89043321632008 69.10469171097776 H 0.0 **** 0.06
751 C 147.21598389976455 20.662945632753036 23.825957185729294 C 0.0 **** -0.24
752 H 148.062293249293 20.62624862082518 24.512379351518774 H 0.0 **** 0.06
753 H 146.29670186937884 20.443783314390572 24.37013179642497 H 0.0 **** 0.06
754 H 147.3562476049174 19.924820201580218 23.03604484030639 H 0.0 **** 0.06
755 H 147.14918974658335 21.658557601320098 23.384948185184257 H 0.0 **** 0.06
756 C 23.64750649041315 113.84521600318618 191.20874271647608 C 0.0 **** -0.24
757 H 24.61439505018612 113.46701944960998 190.87839980603712 H 0.0 **** 0.06
758 H 23.5369267403876 114.88316748991537 190.89304917813982 H 0.0 **** 0.06
759 H 23.58724047999104 113.78759182464066 192.2955909266483 H 0.0 **** 0.06
760 H 22.853055693763025 113.24418730202439 190.76742991153327 H 0.0 **** 0.06
761 C 236.44750329950773 40.312959161678634 97.45292135198073 C 0.0 **** -0.24
762 H 236.56032231857483 39.81785152090785 96.48805044394237 H 0.0 **** 0.06
763 H 235.42238989406434 40.66781923052743 97.55998398768168 H 0.0 **** 0.06
764 H 237.13296344991323 41.157996896758064 97.50934978512754 H 0.0 **** 0.06
765 H 236.6736729736205 39.60662080640161 98.25144434574128 H 0.0 **** 0.06
766 C 31.96867191941746 142.4549219637276 147.98981346335765 C 0.0 **** -0.24
767 H 31.26211087092335 143.18675491238906 147.59898155095647 H 0.0 **** 0.06
768 H 31.454051849006618 141.5090853579298 148.16446135264897 H 0.0 **** 0.06
769 H 32.38810305986263 142.81860985856696 148.9272776985087 H 0.0 **** 0.06
770 H 32.77143258120944 142.30359586001703 147.26740062432478 H 0.0 **** 0.06
771 C 180.28161188922172 40.66943634189934 141.41101940100313 C 0.0 **** -0.24
772 H 179.67610315198363 40.06920722742403 142.091184647337 H 0.0 **** 0.06
773 H 179.7177078757406 40.86279205179156 140.49816486292792 H 0.0 **** 0.06
774 H 181.19584659733835 40.12934444243602 141.16690426820446 H 0.0 **** 0.06
775 H 180.53583588729242 41.615374899704435 141.88956613432 H 0.0 **** 0.06
776 C 159.0300814165416 94.69132676529233 149.7101898466259 C 0.0 **** -0.24
777 H 158.1556015595558 94.94101743537746 149.1106841317812 H 0.0 **** 0.06
778 H 158.72263827959426 94.102612980238 150.57414549378396 H 0.0 **** 0.06
779 H 159.51170435472176 95.60937123853665 150.048317439846 H 0.0 **** 0.06
780 H 159.73157722619456 94.11444228191871 149.1076755404764 H 0.0 **** 0.06
781 C 184.86692140611007 107.78765738601902 73.94827072491961 C 0.0 **** -0.24
782 H 184.2018066149896 108.64962397135994 73.90139339378837 H 0.0 **** 0.06
783 H 184.42134510006645 107.0179385011622 74.57873100643656 H 0.0 **** 0.06
784 H 185.82572874114413 108.09173054037998 74.36866171436981 H 0.0 **** 0.06
785 H 185.01938685099114 107.39208075788628 72.94396848413194 H 0.0 **** 0.06
786 C 130.39797919985514 13.5908966454123 205.62729967791978 C 0.0 **** -0.24
787 H 131.43791200805288 13.916616075167767 205.6410900032165 H 0.0 **** 0.06
788 H 129.7709678277246 14.358756971309887 206.08173541540123 H 0.0 **** 0.06
789 H 130.30081553380563 12.662346432011503 206.18861178251097 H 0.0 **** 0.06
790 H 130.08268572962695 13.427350988041667 204.59615447599845 H 0.0 **** 0.06
791 C 53.66770545275352 162.12576236508232 215.74097236856375 C 0.0 **** -0.24
792 H 53.354750801923544 161.1416708686464 215.39301277911304 H 0.0 **** 0.06
793 H 54.48612435160871 162.01666357865815 216.45198609668319 H 0.0 **** 0.06
794 H 52.82828698018143 162.62410098724436 216.2260659846354 H 0.0 **** 0.06
795 H 54.001090852791776 162.72158227635578 214.89089097006357 H 0.0 **** 0.06
796 C 196.11323817493349 161.55628949364677 221.90231422375643 C 0.0 **** -0.24
797 H 195.50366207114678 162.1732313141534 222.5631601519363 H 0.0 **** 0.06
798 H 195.46597120459035 161.02589278166724 221.2032989350687 H 0.0 **** 0.06
799 H 196.6749780414678 160.83525599243538 222.4962440027848 H 0.0 **** 0.06
800 H 196.80606559128168 162.18972048947745 221.34872239768387 H 0.0 **** 0.06
801 C 60.41341567337287 215.85546077646262 213.21410689780694 C 0.0 **** -0.24
802 H 60.3344376165133 216.1230955975053 212.16024796897744 H 0.0 **** 0.06
803 H 60.97932204177508 216.62206775040767 213.74292188783764 H 0.0 **** 0.06
804 H 60.92338893086938 214.89639012512373 213.3080022507501 H 0.0 **** 0.06
805 H 59.41508190358081 215.7783367805584 213.64488775074636 H 0.0 **** 0.06
806 C 123.7062117202914 73.21249781364568 73.29393256843147 C 0.0 **** -0.24
807 H 123.38837740388746 73.94557438300717 74.0350112788935 H 0.0 **** 0.06
808 H 123.9720629859159 72.2814610147604 73.79466219012923 H 0.0 **** 0.06
809 H 124.57274498608004 73.59415847681313 72.75371149399814 H 0.0 **** 0.06
810 H 122.89259744739672 73.02910514259324 72.59251649564331 H 0.0 **** 0.06
811 C 212.00941075454708 132.25905388703686 197.52182437336813 C 0.0 **** -0.24
812 H 211.89722690146095 133.2392732816509 197.98483872262 H 0.0 **** 0.06
813 H 211.3522212423199 132.18944196131386 196.65504141701658 H 0.0 **** 0.06
814 H 211.74438624291463 131.4840025446076 198.24138743511878 H 0.0 **** 0.06
815 H 213.04444029811722 132.1227312801147 197.20591366590253 H 0.0 **** 0.06
816 C 168.23578292126192 57.070091631501754 243.80484114408347 C 0.0 **** -0.24
817 H 167.16829396579638 56.85326846850475 243.78368448574003 H 0.0 **** 0.06
818 H 168.759692523026 56.26726689137283 244.32544056173913 H 0.0 **** 0.06
819 H 168.4045449262175 58.01247815490848 244.32628682572238 H 0.0 **** 0.06
820 H 168.611678569192 57.14684493461536 242.7847137212049 H 0.0 **** 0.06
821 C 171.6238836206521 236.73532120035966 83.64424367008476 C 0.0 **** -0.24
822 H 171.99160661697704 236.53544429789886 84.6507115490246 H 0.0 **** 0.06
823 H 172.4327427717754 236.59529421418026 82.92792958061202 H 0.0 **** 0.06
824 H 171.26140952081758 237.76179432859735 83.58776345942314 H 0.0 **** 0.06
825 H 170.80953556053467 236.04930460178238 83.41184954482517 H 0.0 **** 0.06
826 C 215.63925088772783 63.61624334855614 68.97811599935488 C 0.0 **** -0.24
827 H 216.1318936277459 64.54585427263882 69.26384005079257 H 0.0 **** 0.06
828 H 215.56175574434525 63.56667840765007 67.89203203030127 H 0.0 **** 0.06
829 H 214.6413428060983 63.58508644952448 69.41575543933715 H 0.0 **** 0.06
830 H 216.22284036010052 62.770545963028184 69.34048158689959 H 0.0 **** 0.06
831 C 228.64604138783181 9.531616037944417 241.0869594413284 C 0.0 **** -0.24
832 H 229.40417505067342 8.903281551333478 240.61815062802896 H 0.0 **** 0.06
833 H 228.38114321301973 9.11744599277084 242.05934295172577 H 0.0 **** 0.06
834 H 227.75996983858366 9.564835209227752 240.45228371747424 H 0.0 **** 0.06
835 H 229.0395276287589 10.539464907023984 241.21550824427376 H 0.0 **** 0.06
836 C 131.67931764672798 89.6741514208999 198.8439758498275 C 0.0 **** -0.24
837 H 131.99571455059802 89.4957159022054 199.87194002203287 H 0.0 **** 0.06
838 H 130.81984420372137 89.04380738608913 198.61473062683964 H 0.0 **** 0.06
839 H 132.49757816426575 89.43319090730293 198.165822976541 H 0.0 **** 0.06
840 H 131.4040506270124 90.72112455798302 198.7249385969031 H 0.0 **** 0.06
841 C 162.06034336279802 160.28866534376002 227.17879822107133 C 0.0 **** -0.24
842 H 161.0954145029 159.90086727967682 226.85429011175842 H 0.0 **** 0.06
843 H 162.76640636278827 159.46400968119733 227.2850086934347 H 0.0 **** 0.06
844 H 161.94555767988118 160.79471731131318 228.13747659486887 H 0.0 **** 0.06
845 H 162.43596420662863 160.99531298064895 226.43866534831324 H 0.0 **** 0.06
846 C 175.74186940384283 139.1793048356879 184.2462179385996 C 0.0 **** -0.24
847 H 176.2978387869865 140.1080142511949 184.37702482511136 H 0.0 **** 0.06
848 H 175.69723996648085 138.64603159412778 185.19627974756133 H 0.0 **** 0.06
849 H 176.2419040617802 138.5585449642727 183.50347970639024 H 0.0 **** 0.06
850 H 174.73060906005233 139.4069507345954 183.90885843809022 H 0.0 **** 0.06
851 C 53.031952467437634 38.49725414053036 186.30333917331237 C 0.0 **** -0.24
852 H 52.58928604638142 37.737124990916215 185.66000125272723 H 0.0 **** 0.06
853 H 52.241692182378046 39.04464631399783 186.815791167387 H 0.0 **** 0.06
854 H 53.61983137690393 39.187455890629764 185.69750379144847 H 0.0 **** 0.06
855 H 53.67886698052399 38.01894082366351 187.0381122972585 H 0.0 **** 0.06
856 C 58.25662588154583 41.726675240460764 209.97267596064754 C 0.0 **** -0.24
857 H 59.21227885159854 41.27922840973659 210.24272833903387 H 0.0 **** 0.06
858 H 58.25560119816285 42.77950787717438 210.25691348334126 H 0.0 **** 0.06
859 H 57.45220105057078 41.20847313600322 210.49580868851444 H 0.0 **** 0.06
860 H 58.10577393793835 41.64018384067188 208.89701407605267 H 0.0 **** 0.06
861 C 35.612025833071215 106.64116776663661 101.04420255679983 C 0.0 **** -0.24
862 H 35.13853985723367 106.10700809024488 101.86805329646586 H 0.0 **** 0.06
863 H 34.98100981066645 106.57590735897966 100.15818821071235 H 0.0 **** 0.06
864 H 36.58345674780966 106.19352725475142 100.83300235664544 H 0.0 **** 0.06
865 H 35.74664757940846 107.6875676853904 101.32024200307777 H 0.0 **** 0.06
866 C 81.26452898358068 189.67226141281822 221.6854524492947 C 0.0 **** -0.24
867 H 81.42308021867743 189.73275150013086 222.76153098313728 H 0.0 **** 0.06
868 H 82.0170744666961 190.27284387974515 221.17282336119374 H 0.0 **** 0.06
869 H 80.27191715536546 190.04989789269592 221.44256563467323 H 0.0 **** 0.06
870 H 81.3469622111744 188.6339373065848 221.36388537301008 H 0.0 **** 0.06
871 C 106.63316037324225 214.10956968015716 41.979899783034995 C 0.0 **** -0.24
872 H 106.33790220940747 213.47148554621805 41.146693429106335 H 0.0 **** 0.06
873 H 105.78799191886296 214.23571120452488 42.65772806799626 H 0.0 **** 0.06
874 H 106.9419990273079 215.08267838586812 41.59974364486389 H 0.0 **** 0.06
875 H 107.46288619092772 213.64770444563436 42.51522505233113 H 0.0 **** 0.06
876 C 195.47866132601996 195.60358140882187 201.47963200134018 C 0.0 **** -0.24
877 H 195.5631156845546 196.64124020388806 201.15664089269058 H 0.0 **** 0.06
878 H 194.67429866597473 195.51579486756134 202.21081447879646 H 0.0 **** 0.06
879 H 196.41789701068564 195.28713177975644 201.9327517705899 H 0.0 **** 0.06
880 H 195.25876987560295 194.97152998656057 200.61921621857545 H 0.0 **** 0.06
881 C 199.42636568159665 209.7481976061468 197.59239942217204 C 0.0 **** -0.24
882 H 200.3346781069825 209.46356697538695 198.12265832345346 H 0.0 **** 0.06
883 H 199.60098260805682 209.69106599863693 196.51736989209917 H 0.0 **** 0.06
884 H 199.15338490279402 210.76850669717732 197.86187005658795 H 0.0 **** 0.06
885 H 198.61785754065727 209.07035569070752 197.86650431919722 H 0.0 **** 0.06
886 C 85.85316090402941 222.5948750156015 77.8321687687326 C 0.0 **** -0.24
887 H 85.37857397048816 223.57237477397717 77.74447591203747 H 0.0 **** 0.06
888 H 85.35115752956452 222.0169326993123 78.60928579851029 H 0.0 **** 0.06
889 H 86.90349010577026 222.722723929528 78.09584622620636 H 0.0 **** 0.06
890 H 85.77857170880407 222.0679980603672 76.88130248616162 H 0.0 **** 0.06
891 C 125.65632761715003 50.4952028745372 79.77183881990177 C 0.0 **** -0.24
892 H 125.22610816960861 49.55582156048726 79.42543509999254 H 0.0 **** 0.06
893 H 125.08584070155294 50.86241088748321 80.62518724070645 H 0.0 **** 0.06
894 H 125.6210343780669 51.230064064838245 78.96701151159974 H 0.0 **** 0.06
895 H 126.69137288767249 50.33229893793083 80.0695150677615 H 0.0 **** 0.06
896 C 9.587097128832085 211.9200455314823 64.97668984579252 C 0.0 **** -0.24
897 H 9.228689677566607 212.51102106829583 65.82018234331954 H 0.0 **** 0.06
898 H 8.741699352627862 211.43027952400132 64.49190902794692 H 0.0 **** 0.06
899 H 10.288551445798305 211.16592090431706 65.33398028765805 H 0.0 **** 0.06
900 H 10.088702859759692 212.573031080468 64.2627948058109 H 0.0 **** 0.06
901 C 226.87422112503174 125.61121087860573 162.56404459452693 C 0.0 **** -0.24
902 H 226.95781350367014 126.68372272287732 162.74048787180325 H 0.0 **** 0.06
903 H 227.87046976311046 125.1850291791265 162.44213730195355 H 0.0 **** 0.06
904 H 226.29005439092788 125.43557182128416 161.66154489769244 H 0.0 **** 0.06
905 H 226.3795199848189 125.14141538154189 163.41381134863775 H 0.0 **** 0.06
906 C 78.46617612266985 166.66024077473887 73.22334033330887 C 0.0 **** -0.24
907 H 78.41178881403093 166.86950580290784 72.15534514113708 H 0.0 **** 0.06
908 H 78.00537634490505 167.47875463875738 73.7772827477431 H 0.0 **** 0.06
909 H 79.50981884184432 166.56144681346217 73.5212768923686 H 0.0 **** 0.06
910 H 77.9377204898991 165.73125584382805 73.43945655198681 H 0.0 **** 0.06
911 C 17.10390210782478 100.44525195672128 196.3380924447422 C 0.0 **** -0.24
912 H 17.69279703448578 100.4880910294965 197.25414547004334 H 0.0 **** 0.06
913 H 16.238159712580313 101.10046131613396 196.4320890670651 H 0.0 **** 0.06
914 H 16.76954315964676 99.42175613053908 196.16892106651198 H 0.0 **** 0.06
915 H 17.71680855301966 100.77038119810638 195.49712084016872 H 0.0 **** 0.06
916 C 198.92427484859275 52.44696049435149 201.8133859836584 C 0.0 **** -0.24
917 H 198.68991569221032 53.46440004017225 202.12731293515841 H 0.0 **** 0.06
918 H 198.7911647966121 51.7671789477358 202.6561050058948 H 0.0 **** 0.06
919 H 199.95695043443203 52.401480442218 201.4695586218761 H 0.0 **** 0.06
920 H 198.25713847755281 52.15507983253511 201.00204615659277 H 0.0 **** 0.06
921 C 85.28748343299699 148.5177970485214 164.6776415785862 C 0.0 **** -0.24
922 H 85.11511207397129 148.9766147382475 163.70392292636677 H 0.0 **** 0.06
923 H 86.2872129555472 148.0827242510337 164.70203673703978 H 0.0 **** 0.06
924 H 84.54617925547703 147.73688807094513 164.84691902316027 H 0.0 **** 0.06
925 H 85.20136504970168 149.27520865770802 165.45629672720338 H 0.0 **** 0.06
926 C 40.43935386948479 46.46663121341342 67.81389487497393 C 0.0 **** -0.24
927 H 40.76173403721921 46.08624716575295 68.7824631790067 H 0.0 **** 0.06
928 H 40.57016154169966 45.69205773049546 67.05724709959023 H 0.0 **** 0.06
929 H 41.03777258733939 47.33841286656545 67.54816312596725 H 0.0 **** 0.06
930 H 39.38861314859221 46.74952746891441 67.86623226792148 H 0.0 **** 0.06
931 C 75.77985919555363 128.24511207101924 63.821958759928435 C 0.0 **** -0.24
932 H 75.25389318043631 128.49955277111775 62.90177005625284 H 0.0 **** 0.06
933 H 76.1503015001864 129.1565279946234 64.29224175094376 H 0.0 **** 0.06
934 H 76.61898096526278 127.5888518072507 63.59096592147435 H 0.0 **** 0.06
935 H 75.09683517427675 127.73679902219851 64.50270364746319 H 0.0 **** 0.06
936 C 36.22409295553953 187.63240340559446 113.15794769699059 C 0.0 **** -0.24
937 H 36.12648877825737 187.0702908782969 114.08650598624175 H 0.0 **** 0.06
938 H 35.319650066492585 187.5103988540086 112.5624508345206 H 0.0 **** 0.06
939 H 37.08162583759125 187.26077145883377 112.5972128047334 H 0.0 **** 0.06
940 H 36.36866251827283 188.68903972650875 113.38607903806925 H 0.0 **** 0.06
941 C 217.42364327227426 203.82811314518744 168.68883890859527 C 0.0 **** -0.24
942 H 218.15768968570768 203.10848722893365 168.32651450796615 H 0.0 **** 0.06
943 H 216.56735569555624 203.29633994182922 169.10451837885918 H 0.0 **** 0.06
944 H 217.09395010442563 204.4575662727757 167.86223153799276 H 0.0 **** 0.06
945 H 217.875350324722 204.4499843523446 169.46069737632402 H 0.0 **** 0.06
946 C 100.2668619271441 115.3721515058341 57.51258952413005 C 0.0 **** -0.24
947 H 99.25437693241705 115.04886784859525 57.26950849330936 H 0.0 **** 0.06
948 H 100.95120242517194 114.52996145399314 57.40638888379377 H 0.0 **** 0.06
949 H 100.2950525670951 115.73745653704759 58.539387505947275 H 0.0 **** 0.06
950 H 100.56468307191423 116.17121776522447 56.833274241329946 H 0.0 **** 0.06
951 C 191.87656874556853 37.8591590274186 85.50705214694483 C 0.0 **** -0.24
952 H 191.48047473513253 37.08382782494678 86.1631067435116 H 0.0 **** 0.06
953 H 191.4959993806953 38.83048009089916 85.82306309577018 H 0.0 **** 0.06
954 H 191.56224686067884 37.66204925450151 84.48187798402682 H 0.0 **** 0.06
955 H 192.96455594011167 37.860386904481174 85.56015497777997 H 0.0 **** 0.06
956 C 147.8396040280197 237.95602981067498 35.78156952396685 C 0.0 **** -0.24
957 H 146.9789318434119 238.6212553146994 35.71186307619111 H 0.0 **** 0.06
958 H 148.7544932025984 238.54796968263662 35.79804833531118 H 0.0 **** 0.06
959 H 147.85270222879083 237.2892691578382 34.91973239770935 H 0.0 **** 0.06
960 H 147.76997835428378 237.36748996354441 36.696205342127925 H 0.0 **** 0.06
961 C 102.67651292488634 149.44828957169022 158.96636013568266 C 0.0 **** -0.24
962 H 101.59637967355323 149.31808829522086 158.89510452528924 H 0.0 **** 0.06
963 H 103.03819866918167 148.98795793072725 159.88648174930742 H 0.0 **** 0.06
964 H 102.91355972093584 150.51287353923024 158.9745072910785 H 0.0 **** 0.06
965 H 103.15662363594913 148.97568680985356 158.10983523951185 H 0.0 **** 0.06
966 C 223.7710832202988 220.25646366829852 67.54390920952702 C 0.0 **** -0.24
967 H 222.94635348806995 220.13703629257333 66.84114001417186 H 0.0 **** 0.06
968 H 223.37639798496787 220.30543088544061 68.55964163644015 H 0.0 **** 0.06
969 H 224.30943251045548 221.1759560206845 67.3180521592295 H 0.0 **** 0.06
970 H 224.4485605176665 219.4075058709653 67.45714671486147 H 0.0 **** 0.06
971 C 188.5909868750619 31.997117542703933 69.70260985447678 C 0.0 **** -0.24
972 H 188.60572637560716 31.14570644780153 69.02171010422953 H 0.0 **** 0.06
973 H 188.97622759710902 31.690057934064583 70.67556081101097 H 0.0 **** 0.06
974 H 187.5670495784465 32.35486309473433 69.81346610217963 H 0.0 **** 0.06
975 H 189.21352134010615 32.79472260929603 69.29921110562475 H 0.0 **** 0.06
976 C 238.77260772456353 90.3069782448876 138.06642232506053 C 0.0 **** -0.24
977 H 238.32526610177356 89.31423632294246 138.0161777363284 H 0.0 **** 0.06
978 H 239.8227176907855 90.21756522580924 138.3443826438014 H 0.0 **** 0.06
979 H 238.24813620490295 90.90354545998034 138.8131396453014 H 0.0 **** 0.06
980 H 238.69338017589632 90.79046448432882 137.09283636638065 H 0.0 **** 0.06
981 C 222.22140450116092 201.1639816674576 167.92522107419342 C 0.0 **** -0.24
982 H 222.36432909702523 201.87028639323552 168.74360959595725 H 0.0 **** 0.06
983 H 221.18833018399494 201.21484408751957 167.57935541871888 H 0.0 **** 0.06
984 H 222.43827374163203 200.15522067444238 168.2742519388815 H 0.0 **** 0.06
985 H 222.89248127017842 201.41708882904274 167.1045912542735 H 0.0 **** 0.06
986 C 188.85308339954616 145.49480812443997 177.37922359655704 C 0.0 **** -0.24
987 H 188.58786524547764 145.47976032340395 178.43564465313742 H 0.0 **** 0.06
988 H 188.27216712778377 146.2636940047084 176.8696508741378 H 0.0 **** 0.06
989 H 188.63765558745612 144.52290488893038 176.93564550380893 H 0.0 **** 0.06
990 H 189.9163588621785 145.71407334451382 177.27467869189528 H 0.0 **** 0.06
991 C 178.39043664092856 76.00796544563386 134.9220188518742 C 0.0 **** -0.24
992 H 178.4217329929965 75.04050060179537 134.42225803912658 H 0.0 **** 0.06
993 H 177.94949520656843 75.89207531909761 135.9119656669479 H 0.0 **** 0.06
994 H 177.78768292655167 76.70094482837877 134.33410294426778 H 0.0 **** 0.06
995 H 179.40309262058406 76.4004650433522 135.01909876735294 H 0.0 **** 0.06
996 C 56.671790336842776 148.8181154040296 140.11670807180178 C 0.0 **** -0.24
997 H 56.945644163251075 149.14663145639204 139.1143618993529 H 0.0 **** 0.06
998 H 57.2343078248779 147.9189963463762 140.37021068447 H 0.0 **** 0.06
999 H 55.60416893962372 148.59987136136198 140.14799164942877 H 0.0 **** 0.06
1000 H 56.90291916553582 149.60581993873453 140.83344344472232 H 0.0 **** 0.06
1001 C 160.23886437370143 227.97929821428414 164.92702164539273 C 0.0 **** -0.24
1002 H 160.26544411875267 228.17902889185723 165.99823345570638 H 0.0 **** 0.06
1003 H 161.2217942008275 228.17371219172597 164.49679177827826 H 0.0 **** 0.06
1004 H 159.50147335737805 228.62883162067152 164.45518225139122 H 0.0 **** 0.06
1005 H 159.96753560193406 226.93793088894026 164.75807092526125 H 0.0 **** 0.06
1006 C 195.77028641387608 73.02490387968822 207.9713146211647 C 0.0 **** -0.24
1007 H 194.72474655915644 73.204061126145 207.72037705236002 H 0.0 **** 0.06
1008 H 195.83807885059315 72.19129679121235 208.67029886730876 H 0.0 **** 0.06
1009 H 196.19157528716778 73.91971886009091 208.42996308062732 H 0.0 **** 0.06
1010 H 196.3247511789773 72.78468508227346 207.06467835828414 H 0.0 **** 0.06
1011 C 20.913157321644434 4.709269372498113 155.8351425129987 C 0.0 **** -0.24
1012 H 21.47684309833599 5.4404368107339 156.41394134178023 H 0.0 **** 0.06
1013 H 20.275796510662275 5.2267595760862235 155.11887186247665 H 0.0 **** 0.06
1014 H 20.295909411228052 4.111991957970531 156.50649806682475 H 0.0 **** 0.06
1015 H 21.60471737904058 4.057144148811986 155.30106110051935 H 0.0 **** 0.06
1016 C 157.69064011758218 245.28113961692753 168.03705261749175 C 0.0 **** -0.24
1017 H 158.44982885677405 245.5954256360355 167.32144845522083 H 0.0 **** 0.06
1018 H 157.00559890814756 244.5809493579656 167.55774194244472 H 0.0 **** 0.06
1019 H 157.13570773562193 246.15264221055565 168.38333695552163 H 0.0 **** 0.06
1020 H 158.17115694382636 244.79562492706583 168.88664289392727 H 0.0 **** 0.06
1021 C 237.41865200820862 210.4169693233088 91.27517624251215 C 0.0 **** -0.24
1022 H 237.43487017439904 209.4449520302989 91.76948073878299 H 0.0 **** 0.06
1023 H 236.42167125408213 210.84930902043735 91.35720261942407 H 0.0 **** 0.06
1024 H 237.67692958772614 210.29358670717565 90.22386944523956 H 0.0 **** 0.06
1025 H 238.14301368249016 211.07799836446492 91.7522384520648 H 0.0 **** 0.06
1026 C 7.445567392569387 210.37665584471063 114.21380843515664 C 0.0 **** -0.24
1027 H 7.784719057220087 210.71747109471897 113.23499911055868 H 0.0 **** 0.06
1028 H 7.830517545638926 209.3742240180102 114.40211506155384 H 0.0 **** 0.06
1029 H 6.356158726455988 210.35783495607734 114.23307228446853 H 0.0 **** 0.06
1030 H 7.810693904287859 211.05765597847872 114.98178369859076 H 0.0 **** 0.06
1031 C 137.93565321909242 2.496461556012761 56.80590153200362 C 0.0 **** -0.24
1032 H 137.72760475574756 1.5675091279490658 57.336878737766284 H 0.0 **** 0.06
1033 H 138.92764142446296 2.4441027636734134 56.35783510735166 H 0.0 **** 0.06
1034 H 137.8971472179358 3.3305505720547757 57.50732535592408 H 0.0 **** 0.06
1035 H 137.19008170300776 2.6432124814010365 56.02527624637702 H 0.0 **** 0.06
1036 C 144.2555004433157 8.890901077171804 241.37923078913548 C 0.0 **** -0.24
1037 H 145.10752558268516 9.449620853050064 241.7688536332832 H 0.0 **** 0.06
1038 H 144.55517374265438 7.8603312816945135 241.18655648332043 H 0.0 **** 0.06
1039 H 143.91335597881223 9.349836043364846 240.45232873449723 H 0.0 **** 0.06
1040 H 143.44853186436492 8.90415963997306 242.11123316848887 H 0.0 **** 0.06
1041 C 159.55719919158346 43.335133913972726 233.2900002650357 C 0.0 **** -0.24
1042 H 158.7064112402605 42.679115716821 233.10781204085646 H 0.0 **** 0.06
1043 H 159.43797522934793 43.82557675291943 234.25663103609074 H 0.0 **** 0.06
1044 H 159.61021285226522 44.087918288218816 232.5040341090832 H 0.0 **** 0.06
1045 H 160.47502002538656 42.74698708477112 233.2921901222423 H 0.0 **** 0.06
1046 C 236.80419854483296 77.33405475975462 161.04019051271575 C 0.0 **** -0.24
1047 H 236.58845833502704 77.57998166747453 162.07979365046856 H 0.0 **** 0.06
1048 H 237.23563271913338 76.3339540512159 160.98595301156513 H 0.0 **** 0.06
1049 H 237.51088070416046 78.05771129332933 160.6345908194699 H 0.0 **** 0.06
1050 H 235.8810345070054 77.36411099794532 160.46083280148633 H 0.0 **** 0.06
1051 C 63.81401760542434 172.2565751419227 17.787068799561027 C 0.0 **** -0.24
1052 H 63.33819056764929 171.85026510640486 18.679523477943604 H 0.0 **** 0.06
1053 H 63.04928970626568 172.52589836255427 17.05814849003322 H 0.0 **** 0.06
1054 H 64.47918056504315 171.5083963323602 17.35761069804424 H 0.0 **** 0.06
1055 H 64.38919345458501 173.14294455829844 18.054575002623096 H 0.0 **** 0.06
1056 C 240.08501954224602 147.09790732961287 188.4224310220224 C 0.0 **** -0.24
1057 H 240.93747686854755 147.36599678218008 189.04767828096595 H 0.0 **** 0.06
1058 H 239.85300119159336 147.92490739765586 187.75132675153952 H 0.0 **** 0.06
1059 H 239.22264633888383 146.88914651593996 189.0547441880858 H 0.0 **** 0.06
1060 H 240.3291638546795 146.2115880960497 187.83631469756205 H 0.0 **** 0.06
1061 C 216.80567693801626 15.065223621283906 95.6762303882279 C 0.0 **** -0.24
1062 H 217.34856604208215 16.00908906136243 95.62052557052638 H 0.0 **** 0.06
1063 H 217.30663161335835 14.399359756538061 96.37963091827439 H 0.0 **** 0.06
1064 H 216.78243214509035 14.601970100839864 94.69038231975571 H 0.0 **** 0.06
1065 H 215.78683306993761 15.25176855861612 96.01549978908665 H 0.0 **** 0.06
1066 C 233.68364026289711 46.56709621430481 247.05913270373605 C 0.0 **** -0.24
1067 H 234.13484837814644 47.08344878966986 247.90579013937943 H 0.0 **** 0.06
1068 H 233.18232627291806 47.29215365905614 246.4172483189442 H 0.0 **** 0.06
1069 H 232.95805539132786 45.83957658771068 247.42158455798608 H 0.0 **** 0.06
1070 H 234.45942243354216 46.05374447814775 246.49060337948924 H 0.0 **** 0.06
1071 C 41.813722565892746 72.9704644497275 220.6046638771044 C 0.0 **** -0.24
1072 H 42.71819007374607 73.44846484559332 220.22690902410616 H 0.0 **** 0.06
1073 H 41.482948114858814 73.48406130588324 221.50746789922968 H 0.0 **** 0.06
1074 H 42.02535644333922 71.9261158774732 220.836022341702 H 0.0 **** 0.06
1075 H 41.031612075099844 73.02374313248811 219.84764265780055 H 0.0 **** 0.06
1076 C 70.54959915073223 35.89411748027723 45.80096693824481 C 0.0 **** -0.24
1077 H 70.36826269345627 36.95294268233815 45.61946531719667 H 0.0 **** 0.06
1078 H 69.96238928825491 35.30029806829495 45.101410907691104 H 0.0 **** 0.06
1079 H 70.26042405610983 35.645971439776034 46.822498084291794 H 0.0 **** 0.06
1080 H 71.6096036815878 35.6785135569622 45.6615936062596 H 0.0 **** 0.06
1081 C 166.71092247929792 87.43259052164282 164.6481332804296 C 0.0 **** -0.24
1082 H 166.67837198651023 86.5829394076886 165.32948048285 H 0.0 **** 0.06
1083 H 166.99687109440532 88.32900222528136 165.19934288337214 H 0.0 **** 0.06
1084 H 165.7281173810824 87.57841948657298 164.2008988764734 H 0.0 **** 0.06
1085 H 167.44255319151483 87.240235157858 163.8627967327493 H 0.0 **** 0.06
1086 C 243.55126032862523 190.4291449972482 146.93790650816015 C 0.0 **** -0.24
1087 H 243.83635755160685 189.38955330329986 147.0973030134851 H 0.0 **** 0.06
1088 H 243.11991364526298 190.83138454037547 147.85458145502443 H 0.0 **** 0.06
1089 H 242.81579969869082 190.48460095038476 146.13493709758757 H 0.0 **** 0.06
1090 H 244.4324137938712 191.0098335611499 146.66432300143163 H 0.0 **** 0.06
1091 C 100.56434757130819 163.94811936661216 213.4574217144025 C 0.0 **** -0.24
1092 H 99.51881442992712 163.64599223475795 213.39807347123693 H 0.0 **** 0.06
1093 H 100.96155416929457 163.6922652312732 214.43993896798926 H 0.0 **** 0.06
1094 H 100.63987328711141 165.02489221564986 213.3030433629671 H 0.0 **** 0.06
1095 H 101.13597607443117 163.43084990849144 212.6871115643391 H 0.0 **** 0.06
1096 C 231.15405056157752 248.64549065266138 164.58469283955208 C 0.0 **** -0.24
1097 H 230.46539480346826 249.15767621302223 163.91231885646212 H 0.0 **** 0.06
1098 H 231.31272679180302 249.2548992489639 165.47512116265955 H 0.0 **** 0.06
1099 H 232.10578118801374 248.48757123359061 164.07678059644385 H 0.0 **** 0.06
1100 H 230.73233976500921 247.6831281015338 164.87342088794244 H 0.0 **** 0.06
1101 C 155.69192768159164 166.95320512631463 136.29808683633138 C 0.0 **** -0.24
1102 H 155.73048660977474 167.95335393806712 135.86706928775243 H 0.0 **** 0.06
1103 H 156.66525666279261 166.47437591903116 136.19228583865765 H 0.0 **** 0.06
1104 H 154.93748482102146 166.36357284485413 135.77778855018198 H 0.0 **** 0.06
1105 H 155.43372206420233 167.02357576157027 137.35477193743708 H 0.0 **** 0.06
1106 C 24.83993731746233 56.84691370610935 57.72640764737699 C 0.0 **** -0.24
1107 H 23.878655684634637 57.1898284184434 57.343538619039094 H 0.0 **** 0.06
1108 H 25.583858897844166 57.63316747783506 57.598645148433036 H 0.0 **** 0.06
1109 H 25.152830310871323 55.957738478668944 57.178456038850925 H 0.0 **** 0.06
1110 H 24.744243284041616 56.60534127659761 58.785683813781816 H 0.0 **** 0.06
1111 C 74.60129610915973 62.760156680697406 73.94945496099712 C 0.0 **** -0.24
1112 H 74.99867937816285 63.68119075213721 73.52192326093103 H 0.0 **** 0.06
1113 H 73.51941478268228 62.847926858274235 74.05844018637362 H 0.0 **** 0.06
1114 H 75.0523575582665 62.58994284077366 74.92669565822513 H 0.0 **** 0.06
1115 H 74.83330762802947 61.92324618806262 73.29114420854086 H 0.0 **** 0.06
1116 C 237.3977603980146 161.67357076498638 107.13545033287718 C 0.0 **** -0.24
1117 H 236.90260648009092 161.47123082001184 106.18606436976381 H 0.0 **** 0.06
1118 H 238.2801491142522 161.039191322932 107.22759402491315 H 0.0 **** 0.06
1119 H 236.71112171625512 161.46334477441607 107.95582459398722 H 0.0 **** 0.06
1120 H 237.6983494034364 162.72128778588788 107.17232682754934 H 0.0 **** 0.06
1121 C 186.5253907160822 166.65833951061435 164.71602851517306 C 0.0 **** -0.24
1122 H 185.8606941356743 166.8588135523896 163.8755416403164 H 0.0 **** 0.06
1123 H 185.9375277871445 166.568919024212 165.6298177289353 H 0.0 **** 0.06
1124 H 187.23692054222434 167.47708358084986 164.82024471800165 H 0.0 **** 0.06
1125 H 187.0640805029521 165.72783985189056 164.53868911885033 H 0.0 **** 0.06
1126 C 184.31466516238814 151.4708756725393 66.09504637322829 C 0.0 **** -0.24
1127 H 184.76987478314354 151.91884539745604 65.21168240692037 H 0.0 **** 0.06
1128 H 183.74474330085863 152.2294705957452 66.63361429374078 H 0.0 **** 0.06
1129 H 185.09463596711825 151.07295845263639 66.7443452263538 H 0.0 **** 0.06
1130 H 183.64840244996213 150.66440552001612 65.79004235255468 H 0.0 **** 0.06
1131 C 182.49195132435653 38.977111921804806 240.14713812045574 C 0.0 **** -0.24
1132 H 182.70446318250322 38.01846823026489 239.6755254223425 H 0.0 **** 0.06
1133 H 182.85200907530057 38.963689980377936 241.17646209689607 H 0.0 **** 0.06
1134 H 181.41572511778986 39.15469232905697 240.14058546933984 H 0.0 **** 0.06
1135 H 182.99404788405928 39.772315339056036 239.59620424260555 H 0.0 **** 0.06
1136 C 193.4763874456793 143.83422383179794 87.84286186633881 C 0.0 **** -0.24
1137 H 192.97411860550562 143.95780806603585 86.88343989574443 H 0.0 **** 0.06
1138 H 194.14272888129182 142.9731108708223 87.79551077947721 H 0.0 **** 0.06
1139 H 192.73255974538085 143.6764703119638 88.62466539713563 H 0.0 **** 0.06
1140 H 194.05431737348192 144.72998261995 88.06849597992434 H 0.0 **** 0.06
1141 C 146.99955620192623 117.51102257131669 120.12584001652294 C 0.0 **** -0.24
1142 H 146.879747274362 116.89927109083581 121.02000080531042 H 0.0 **** 0.06
1143 H 146.02327421607498 117.68844470098415 119.67435198300512 H 0.0 **** 0.06
1144 H 147.64101753099553 116.99159160943833 119.41356239280566 H 0.0 **** 0.06
1145 H 147.4541206400326 118.46382853719385 120.39648651715152 H 0.0 **** 0.06
1146 C 121.4496802757528 177.95280443096965 161.92849817580844 C 0.0 **** -0.24
1147 H 120.68688056260191 178.3921819062441 161.2846141687665 H 0.0 **** 0.06
1148 H 120.99027735927595 177.61694706694757 162.8581036618026 H 0.0 **** 0.06
1149 H 122.21304967401159 178.6984901735545 162.14756777936094 H 0.0 **** 0.06
1150 H 121.9068289391339 177.10385868886368 161.42052987767215 H 0.0 **** 0.06
1151 C 245.4630705800331 39.83592331173938 219.46178537248767 C 0.0 **** -0.24
1152 H 244.73354043525833 40.31912098073556 218.81152207672096 H 0.0 **** 0.06
1153 H 245.2768152017864 40.12787933683788 220.4956592475648 H 0.0 **** 0.06
1154 H 246.46792374120093 40.14196381209658 219.17173554916627 H 0.0 **** 0.06
1155 H 245.3722162228729 38.753505752986456 219.36766688570236 H 0.0 **** 0.06
1156 C 99.03221170245001 156.978721891116 244.8649506542646 C 0.0 **** -0.24
1157 H 99.43436369426598 157.98716061086816 244.76397689274606 H 0.0 **** 0.06
1158 H 98.3916803618308 156.75508375063143 244.01145715158287 H 0.0 **** 0.06
1159 H 98.45034770508883 156.91025355612888 245.78449616792602 H 0.0 **** 0.06
1160 H 99.8529587354324 156.26175680264004 244.90046046734358 H 0.0 **** 0.06
1161 C 186.2803852835681 171.67271459888642 111.24746876408557 C 0.0 **** -0.24
1162 H 185.282261518027 171.7722073794612 110.82046559311428 H 0.0 **** 0.06
1163 H 186.41674226367053 172.41817249205664 112.03077066642214 H 0.0 **** 0.06
1164 H 187.02634781952347 171.82387303017506 110.46775113280248 H 0.0 **** 0.06
1165 H 186.3957015033198 170.67423461166268 111.67126290132398 H 0.0 **** 0.06
1166 C 149.76307993908665 180.8813134011104 166.2964141190094 C 0.0 **** -0.24
1167 H 150.25997456350646 180.83673515698518 167.26577735631912 H 0.0 **** 0.06
1168 H 150.50080483977098 180.76148017941028 165.50393476626917 H 0.0 **** 0.06
1169 H 149.26569048582135 181.84464120354818 166.18853068425545 H 0.0 **** 0.06
1170 H 149.02544263674838 180.08224716571573 166.23099302950843 H 0.0 **** 0.06
1171 C 248.61121615955028 28.59968011508353 93.95828295601169 C 0.0 **** -0.24
1172 H 249.07152828285473 28.67351274047391 94.9442211256638 H 0.0 **** 0.06
1173 H 247.52871142923345 28.54560796011266 94.06704078338518 H 0.0 **** 0.06
1174 H 248.97147110866814 27.70124390051906 93.45675996263498 H 0.0 **** 0.06
1175 H 248.8754428601726 29.4765922501509 93.36748694683834 H 0.0 **** 0.06
1176 C 214.8761618863686 86.04681113723427 104.38149800498249 C 0.0 **** -0.24
1177 H 213.89199657847672 86.51234094505762 104.44015991797863 H 0.0 **** 0.06
1178 H 215.28634050964234 85.93616662012491 105.38555719744573 H 0.0 **** 0.06
1179 H 215.53863712332162 86.67324620431384 103.78559346598433 H 0.0 **** 0.06
1180 H 214.78683104811552 85.06592030308508 103.91500712795707 H 0.0 **** 0.06
1181 C 157.22110595025637 196.69926579369204 65.29625939822645 C 0.0 **** -0.24
1182 H 157.4153719257942 196.42958414241843 64.25747302903869 H 0.0 **** 0.06
1183 H 156.43611677409592 197.45359252267173 65.33437415072373 H 0.0 **** 0.06
1184 H 158.13143677947446 197.09776651306416 65.7438613694631 H 0.0 **** 0.06
1185 H 156.9027729359536 195.8143475017148 65.8472714460822 H 0.0 **** 0.06
1186 C 151.46273354944887 230.3464111155609 45.49754066629751 C 0.0 **** -0.24
1187 H 151.85918809731467 230.03210664403497 46.46279454770922 H 0.0 **** 0.06
1188 H 152.201576496806 230.1488466147742 44.72056901873165 H 0.0 **** 0.06
1189 H 151.24101389119807 231.41307302562956 45.52692312313016 H 0.0 **** 0.06
1190 H 150.55001255802188 229.79040249418176 45.28228180332289 H 0.0 **** 0.06
1191 C 24.429004378033895 223.6121234011062 177.75298777231734 C 0.0 **** -0.24
1192 H 24.095532447539583 222.62457354276373 177.43348139961353 H 0.0 **** 0.06
1193 H 25.319023774694486 223.5105571443855 178.37413376141546 H 0.0 **** 0.06
1194 H 23.637948255640197 224.09450965686375 178.32612935114742 H 0.0 **** 0.06
1195 H 24.663526565775783 224.21622975191335 176.87714964854416 H 0.0 **** 0.06
1196 C 37.40655314911949 60.278035372638755 75.3456834693296 C 0.0 **** -0.24
1197 H 38.21391544374639 61.00810021583388 75.40325098958604 H 0.0 **** 0.06
1198 H 36.61575294846911 60.65991307393594 74.70033547890824 H 0.0 **** 0.06
1199 H 37.007191700497074 60.09959856834243 76.34428414701196 H 0.0 **** 0.06
1200 H 37.790731782336124 59.34419448225978 74.93627226994863 H 0.0 **** 0.06
1201 C 175.4018063614507 39.06371364982891 192.50529117676768 C 0.0 **** -0.24
1202 H 174.67009173874038 38.308182226850235 192.79369117949705 H 0.0 **** 0.06
1203 H 175.59273574170504 39.72357591291488 193.3516908082313 H 0.0 **** 0.06
1204 H 175.01226365084534 39.64655370716774 191.67110264557385 H 0.0 **** 0.06
1205 H 176.32976244931712 38.57623935274624 192.20737865316244 H 0.0 **** 0.06
1206 C 193.20246608220032 38.63811088752591 64.6420209914618 C 0.0 **** -0.24
1207 H 194.06759891180596 38.16785609644157 65.10999448690308 H 0.0 **** 0.06
1208 H 192.50763249144114 37.867695670678884 64.30793381369585 H 0.0 **** 0.06
1209 H 193.5291390865864 39.22855706374851 63.78651902086011 H 0.0 **** 0.06
1210 H 192.70735357742882 39.287096392115345 65.36372590518243 H 0.0 **** 0.06
1211 C 77.63232083882679 3.405842190614962 44.12232968869591 C 0.0 **** -0.24
1212 H 77.89168634304079 2.3474753489032167 44.1074056116496 H 0.0 **** 0.06
1213 H 77.15736029264684 3.676331091183016 43.17828370383917 H 0.0 **** 0.06
1214 H 78.53645816844636 3.9995590368378373 44.25739102941313 H 0.0 **** 0.06
1215 H 76.9435468951846 3.600446253156136 44.9443018784104 H 0.0 **** 0.06
1216 C 18.82488214821531 30.454848641970756 122.57619804532015 C 0.0 **** -0.24
1217 H 19.011296273376686 31.340053138462764 123.18439155374404 H 0.0 **** 0.06
1218 H 17.827852507653844 30.070492877509793 122.79176268251317 H 0.0 **** 0.06
1219 H 19.567632178372634 29.691909021538578 122.80750539302318 H 0.0 **** 0.06
1220 H 18.892483837198128 30.7198139196976 121.52031500372937 H 0.0 **** 0.06
1221 C 165.10222583711212 246.02063728317484 228.18102100834147 C 0.0 **** -0.24
1222 H 164.15304219884314 246.45600415314976 228.49411313934232 H 0.0 **** 0.06
1223 H 164.91262365733243 245.1694976788284 227.52802105147146 H 0.0 **** 0.06
1224 H 165.65658229050828 245.69034458487837 229.05914185379595 H 0.0 **** 0.06
1225 H 165.6847454740491 246.76940687956653 227.64300934843575 H 0.0 **** 0.06
1226 C 149.70873897300544 193.10853009840162 193.5854260608251 C 0.0 **** -0.24
1227 H 149.1541985365398 192.701320072739 194.43121946007267 H 0.0 **** 0.06
1228 H 150.7555340269771 193.23246186350622 193.86291768592793 H 0.0 **** 0.06
1229 H 149.28781136709227 194.07474296651375 193.3078846946217 H 0.0 **** 0.06
1230 H 149.63500159679143 192.42355037504103 192.7395944191243 H 0.0 **** 0.06
1231 C 105.40238402153895 94.36921892574404 28.755023497400316 C 0.0 **** -0.24
1232 H 106.24219073619017 95.03932446361358 28.571685510305215 H 0.0 **** 0.06
1233 H 105.51949761493583 93.90005480527353 29.73204499474295 H 0.0 **** 0.06
1234 H 105.37730093701433 93.60017326509782 27.983078435642184 H 0.0 **** 0.06
1235 H 104.47263134730852 94.93792276748778 28.732741739997607 H 0.0 **** 0.06
1236 C 241.85871475191254 202.06678158528013 88.78463075171288 C 0.0 **** -0.24
1237 H 241.77458818949407 203.02825320610472 88.27719442900465 H 0.0 **** 0.06
1238 H 242.85249379572542 201.9731765594201 89.22273905129717 H 0.0 **** 0.06
1239 H 241.70044881727875 201.26165342640832 88.06734342598884 H 0.0 **** 0.06
1240 H 241.1069921153621 202.00538464124625 89.57154184062256 H 0.0 **** 0.06
1241 C 146.53249260176563 202.48712621000237 229.7387343207904 C 0.0 **** -0.24
1242 H 146.62010220032846 202.58810594722095 228.65683311333612 H 0.0 **** 0.06
1243 H 145.74001004828165 201.77522671800415 229.9730804340247 H 0.0 **** 0.06
1244 H 146.2916665026111 203.45599857503163 230.175922720442 H 0.0 **** 0.06
1245 H 147.4766258958632 202.1282083601273 230.14782949782295 H 0.0 **** 0.06
1246 C 110.456277969302 26.4833004966641 164.94460792722953 C 0.0 **** -0.24
1247 H 109.9126765363529 27.32492387620934 164.51475662382362 H 0.0 **** 0.06
1248 H 109.86593092082282 25.57398830384824 164.83224571720012 H 0.0 **** 0.06
1249 H 110.63872733471015 26.671111381920042 166.0028346857437 H 0.0 **** 0.06
1250 H 111.40853648439742 26.365186503730882 164.42796939801372 H 0.0 **** 0.06
1251 C 203.86133223300325 10.47618397919743 24.237816904551153 C 0.0 **** -0.24
1252 H 203.40181538139603 11.097468297898615 23.468870462558186 H 0.0 **** 0.06
1253 H 203.24321573120935 10.492745861426641 25.135991872277202 H 0.0 **** 0.06
1254 H 204.8536617504526 10.861851834195505 24.471789134587823 H 0.0 **** 0.06
1255 H 203.9469791858315 9.451864519046467 23.873505466863378 H 0.0 **** 0.06
1256 C 14.19624565709276 60.71330925369071 52.05660360009725 C 0.0 **** -0.24
1257 H 14.174349998703889 59.77206719360839 52.6058080546816 H 0.0 **** 0.06
1258 H 13.203251220835739 60.92486353287097 51.65923549450568 H 0.0 **** 0.06
1259 H 14.908607926200403 60.63817386025843 51.235840402724165 H 0.0 **** 0.06
1260 H 14.498682943305482 61.51807824146721 52.727977676475376 H 0.0 **** 0.06
1261 C 204.07317473156957 219.6904015396715 162.5824501580197 C 0.0 **** -0.24
1262 H 203.10085459429732 219.20134681596343 162.51749168109748 H 0.0 **** 0.06
1263 H 204.8468564316379 219.00899981716324 162.22662730572034 H 0.0 **** 0.06
1264 H 204.2751579102221 219.9604243027128 163.61947623390404 H 0.0 **** 0.06
1265 H 204.0697331530961 220.59014523244488 161.96692272967783 H 0.0 **** 0.06
1266 C 242.08589484391058 218.4775923684992 67.09782344084832 C 0.0 **** -0.24
1267 H 241.70176170376553 218.2074771670625 66.11365013927374 H 0.0 **** 0.06
1268 H 242.20076886085462 217.57773392968585 67.70152644111093 H 0.0 **** 0.06
1269 H 241.38695192671798 219.1576616500514 67.58610425432514 H 0.0 **** 0.06
1270 H 243.05277387501974 218.9685991891081 66.98755644505738 H 0.0 **** 0.06
1271 C 81.95566601365732 39.027580000511364 22.417594335556913 C 0.0 **** -0.24
1272 H 81.01238542418957 38.67610099786644 22.000116426646827 H 0.0 **** 0.06
1273 H 82.61307645380572 38.1760327370274 22.593470262735792 H 0.0 **** 0.06
1274 H 81.76717373374584 39.542200471004335 23.3600745772479 H 0.0 **** 0.06
1275 H 82.42948666754222 39.71468002909609 21.71667771732112 H 0.0 **** 0.06
1276 C 214.7986311401345 144.6040239579436 31.356949606096208 C 0.0 **** -0.24
1277 H 215.44325621859582 145.4017336204571 30.990600930593786 H 0.0 **** 0.06
1278 H 215.22739160273608 144.1776513930696 32.264162081842045 H 0.0 **** 0.06
1279 H 214.7121607968514 143.82725995008778 30.596493075500774 H 0.0 **** 0.06
1280 H 213.8104542402624 145.0076954500899 31.57711388164975 H 0.0 **** 0.06
1281 C 18.535289285890514 237.33403754035757 100.57016190928161 C 0.0 **** -0.24
1282 H 17.977243550691156 238.1031612954698 100.03626006907737 H 0.0 **** 0.06
1283 H 18.657896940818574 237.6319709568316 101.61164144100374 H 0.0 **** 0.06
1284 H 19.515767148729623 237.21130593015164 100.10930109720175 H 0.0 **** 0.06
1285 H 17.990871138378196 236.39183787981247 100.52313816801095 H 0.0 **** 0.06
1286 C 178.88027646518708 141.00968739666868 19.00180786373693 C 0.0 **** -0.24
1287 H 178.06400748573975 141.62427653799708 18.622047793597048 H 0.0 **** 0.06
1288 H 179.10422476505113 141.29797384896096 20.02963453439682 H 0.0 **** 0.06
1289 H 179.76403145689784 141.15587627100157 18.381711512253318 H 0.0 **** 0.06
1290 H 178.5865957526197 139.9599191832981 18.974514730552315 H 0.0 **** 0.06
1291 C 68.66310483771369 247.61983110086868 96.00760259506836 C 0.0 **** -0.24
1292 H 69.74123869875939 247.63692711521708 96.16896764353322 H 0.0 **** 0.06
1293 H 68.16343397156618 248.11293558936802 96.84241848731602 H 0.0 **** 0.06
1294 H 68.32196475520846 246.5870324233216 95.93769620621339 H 0.0 **** 0.06
1295 H 68.42691921633246 248.14451523299988 95.08192420524603 H 0.0 **** 0.06
1296 C 231.20886840847209 33.11345675858294 198.0498056026376 C 0.0 **** -0.24
1297 H 230.83626335647773 32.125844747027344 197.7771637804119 H 0.0 **** 0.06
1298 H 231.30876251593486 33.72368423069068 197.15255081050145 H 0.0 **** 0.06
1299 H 232.1806814068917 33.014908174862256 198.53345551867895 H 0.0 **** 0.06
1300 H 230.508175211286 33.588077854601266 198.7369165326686 H 0.0 **** 0.06
1301 C 127.00189000426244 0.31040079059827974 204.90773810718866 C 0.0 **** -0.24
1302 H 126.83055198692298 -0.5402142648614614 205.5672726993133 H 0.0 **** 0.06
1303 H 126.09476127967554 0.5160057239843638 204.33904340702213 H 0.0 **** 0.06
1304 H 127.81749006420583 0.08072097711611548 204.223127064045 H 0.0 **** 0.06
1305 H 127.26338591679595 1.18445458296614 205.50478285571484 H 0.0 **** 0.06
1306 C 57.10518600768029 212.27321494296945 178.73138027050888 C 0.0 **** -0.24
1307 H 57.18672167972497 212.1988429781756 177.64731324902908 H 0.0 **** 0.06
1308 H 57.090364691899765 213.32304843538466 179.023961087719 H 0.0 **** 0.06
1309 H 57.96053130018885 211.7787847193098 179.1941272576471 H 0.0 **** 0.06
1310 H 56.18512665272141 211.79076988138524 179.06013262037018 H 0.0 **** 0.06
1311 C 157.91275149169277 38.504849651078445 149.07587628702024 C 0.0 **** -0.24
1312 H 158.57495861334687 37.669086916100525 149.30147536958975 H 0.0 **** 0.06
1313 H 158.5056765625345 39.366204960308096 148.7677083714795 H 0.0 **** 0.06
1314 H 157.33578341013478 38.76088942962255 149.96519740212705 H 0.0 **** 0.06
1315 H 157.23424406735703 38.224316922878245 148.27104051482385 H 0.0 **** 0.06
1316 C 19.951248967563885 140.30779119898583 175.6843335123163 C 0.0 **** -0.24
1317 H 20.156083179921225 141.02509855255528 176.4800003328706 H 0.0 **** 0.06
1318 H 20.860022346093373 139.74941984812637 175.45760689429397 H 0.0 **** 0.06
1319 H 19.61896432785933 140.83992111108063 174.79273256566893 H 0.0 **** 0.06
1320 H 19.171601041951163 139.61868871045994 176.00930496269592 H 0.0 **** 0.06
1321 C 0.4402598959421482 199.99676977298031 128.46099640779025 C 0.0 **** -0.24
1322 H 0.4962301457576359 201.05368690355922 128.2016605771841 H 0.0 **** 0.06
1323 H -0.5918995718201074 199.73454870759255 128.69636957696807 H 0.0 **** 0.06
1324 H 1.0717389707633913 199.8016436748852 129.3290013467676 H 0.0 **** 0.06
1325 H 0.7853198028071517 199.3977797067477 127.61930815631172 H 0.0 **** 0.06
1326 C 189.08450367073002 127.2488176578508 59.69007312590128 C 0.0 **** -0.24
1327 H 189.89758552453657 126.62304347877753 59.322664442281564 H 0.0 **** 0.06
1328 H 188.21247368163844 126.62674838434302 59.89476337442514 H 0.0 **** 0.06
1329 H 188.83107779497527 127.9942078584574 58.93592635773936 H 0.0 **** 0.06
1330 H 189.39742283152268 127.74909291325432 60.60595894102906 H 0.0 **** 0.06
1331 C 130.34786020747217 137.49789111254833 115.49451359810737 C 0.0 **** -0.24
1332 H 130.52367595199883 137.6998033827122 116.5505532831919 H 0.0 **** 0.06
1333 H 129.81693818572333 136.55148741185442 115.3900223791909 H 0.0 **** 0.06
1334 H 131.30131871011088 137.43962122252836 114.9715470102876 H 0.0 **** 0.06
1335 H 129.74732919358107 138.30070793446828 115.06643156880537 H 0.0 **** 0.06
1336 C 109.6516336277671 50.097104899547816 74.62526707502477 C 0.0 **** -0.24
1337 H 109.61062707357317 50.86466243316633 75.39693503896788 H 0.0 **** 0.06
1338 H 108.64556980003161 49.726790289247845 74.4279849569958 H 0.0 **** 0.06
1339 H 110.28158576307712 49.27442583351228 74.96349780984244 H 0.0 **** 0.06
1340 H 110.06796180613159 50.521504738861466 73.71210105195436 H 0.0 **** 0.06
1341 C 212.03024421724288 218.56674247036887 4.636505709811416 C 0.0 **** -0.24
1342 H 211.94586033964566 219.3895194346054 5.347207481206482 H 0.0 **** 0.06
1343 H 212.31465731546658 217.65764084427946 5.165633279076047 H 0.0 **** 0.06
1344 H 212.78943379629243 218.80773434116213 3.891125478540374 H 0.0 **** 0.06
1345 H 211.0707516245224 218.41425226929783 4.1416256447492685 H 0.0 **** 0.06
1346 C 82.86513521308504 16.120897785420397 70.7290374395802 C 0.0 **** -0.24
1347 H 83.79665012734341 15.705440867006814 70.34473406769342 H 0.0 **** 0.06
1348 H 82.77875767827683 15.897113849548589 71.79278423758649 H 0.0 **** 0.06
1349 H 82.02370955319648 15.679245880610964 70.19555171473942 H 0.0 **** 0.06
1350 H 82.86073249061661 17.201093137975846 70.58326986678202 H 0.0 **** 0.06
1351 C 219.45411635569837 60.55874497080487 215.45336012741765 C 0.0 **** -0.24
1352 H 220.41172087196634 60.04097975494889 215.40293854353942 H 0.0 **** 0.06
1353 H 218.9817997848321 60.354906089698716 216.41570692676535 H 0.0 **** 0.06
1354 H 218.80786436812846 60.20678268091032 214.64965403818113 H 0.0 **** 0.06
1355 H 219.61454699787893 61.632060931217666 215.3475185691594 H 0.0 **** 0.06
1356 C 227.36713536518505 94.4770589785171 43.07092552481325 C 0.0 **** -0.24
1357 H 227.04964481727922 93.87509576982109 43.9223952054156 H 0.0 **** 0.06
1358 H 228.02880734975938 93.887131331304 42.436738545990096 H 0.0 **** 0.06
1359 H 227.897884781768 95.3593826942305 43.42795701116384 H 0.0 **** 0.06
1360 H 226.492621661098 94.78545618526704 42.49847071587939 H 0.0 **** 0.06
1361 C 217.00519193005783 118.75306374734814 74.73439451777986 C 0.0 **** -0.24
1362 H 217.27971923334556 119.13501229078238 73.75159106351194 H 0.0 **** 0.06
1363 H 216.38321258964953 119.4861322278854 75.24796717188752 H 0.0 **** 0.06
1364 H 217.9080552993517 118.56847074845652 75.31777410644915 H 0.0 **** 0.06
1365 H 216.4501797852673 117.82182686756445 74.61982155194804 H 0.0 **** 0.06
1366 C 198.2003747962216 80.1474413645378 21.683299602531264 C 0.0 **** -0.24
1367 H 197.62797023073026 79.4017784401234 22.23465827097607 H 0.0 **** 0.06
1368 H 198.36214566559508 81.02066467895273 22.31605611767303 H 0.0 **** 0.06
1369 H 197.64894536530264 80.4424687158681 20.79148516127603 H 0.0 **** 0.06
1370 H 199.16173025161154 79.7253402744615 21.393292858853286 H 0.0 **** 0.06
1371 C 175.0825676210057 108.31856483438429 191.12186453785125 C 0.0 **** -0.24
1372 H 174.7404686460793 109.08118081768686 191.8212354829411 H 0.0 **** 0.06
1373 H 175.32318316283096 107.4064519002022 191.66859640247998 H 0.0 **** 0.06
1374 H 175.96978841456206 108.67582263924066 190.6010049850039 H 0.0 **** 0.06
1375 H 174.2947264497189 108.11121094260275 190.39726035096413 H 0.0 **** 0.06
1376 C 135.30777258418223 15.528117738373084 208.96136430138696 C 0.0 **** -0.24
1377 H 134.50630457058705 14.790166152199873 208.9361245822047 H 0.0 **** 0.06
1378 H 135.53643867852736 15.850233546165185 207.94516510899777 H 0.0 **** 0.06
1379 H 136.1961878171504 15.0850899036175 209.41119346735854 H 0.0 **** 0.06
1380 H 134.99065698751173 16.387646524675716 209.55242566773651 H 0.0 **** 0.06
1381 C 146.3327009084889 166.83957097582928 123.7945548528204 C 0.0 **** -0.24
1382 H 146.82843010697135 167.56556186597066 123.15108741295793 H 0.0 **** 0.06
1383 H 145.71792112667444 166.1749786317264 123.18654052985897 H 0.0 **** 0.06
1384 H 145.70043935279043 167.36307174219522 124.51181899073481 H 0.0 **** 0.06
1385 H 147.0818534069967 166.25524563525025 124.32885345824639 H 0.0 **** 0.06
1386 C 208.23229093055951 82.45731248246099 211.41895219550221 C 0.0 **** -0.24
1387 H 207.93316348216595 82.90400612611683 212.36675445334845 H 0.0 **** 0.06
1388 H 208.8428504457299 83.16609817918348 210.85933671517608 H 0.0 **** 0.06
1389 H 207.34364316906382 82.20617446388823 210.83951589645602 H 0.0 **** 0.06
1390 H 208.80891190323845 81.55243409203518 211.60960349238002 H 0.0 **** 0.06
1391 C 84.79785233502488 129.35494071783316 96.60943915745881 C 0.0 **** -0.24
1392 H 85.49340982881864 129.87097411014764 95.94751855713423 H 0.0 **** 0.06
1393 H 84.2413639716641 128.60884908959747 96.04157952732825 H 0.0 **** 0.06
1394 H 84.10440786122007 130.07625195191275 97.04175088973986 H 0.0 **** 0.06
1395 H 85.35429766398443 128.86330440593565 97.40766149840965 H 0.0 **** 0.06
1396 C 172.77407433727842 226.46215213355262 83.54005609542355 C 0.0 **** -0.24
1397 H 172.52242391399037 226.2742192516368 82.49653951181978 H 0.0 **** 0.06
1398 H 172.96225921811447 225.5145788843173 84.04477181388947 H 0.0 **** 0.06
1399 H 171.94451121435463 226.97547047212223 84.02675403228005 H 0.0 **** 0.06
1400 H 173.66704947699847 227.0853384436773 83.59216938988015 H 0.0 **** 0.06
1401 C 240.41972041689894 203.79769040951416 38.3995492933351 C 0.0 **** -0.24
1402 H 239.92326126167745 203.12892615520207 37.695275011431775 H 0.0 **** 0.06
1403 H 241.37156366805615 204.1251864397977 37.9793251133779 H 0.0 **** 0.06
1404 H 240.5964977699966 203.27130053469665 39.33678620201948 H 0.0 **** 0.06
1405 H 239.7852872483581 204.66510743456539 38.583847518950904 H 0.0 **** 0.06
1406 C 58.17258013738157 180.34856216337408 185.75508681576417 C 0.0 **** -0.24
1407 H 58.543837966273514 179.483154375563 186.30362172802057 H 0.0 **** 0.06
1408 H 57.14750115471966 180.16221737427782 185.43434974171217 H 0.0 **** 0.06
1409 H 58.80099096458508 180.52165884574367 184.8809672884179 H 0.0 **** 0.06
1410 H 58.19890200392135 181.22673046860098 186.40044342925287 H 0.0 **** 0.06
1411 C 190.01945228879882 82.45521087609586 238.70499435571946 C 0.0 **** -0.24
1412 H 189.1137867936144 82.8524771909062 238.24596487802677 H 0.0 **** 0.06
1413 H 190.82972480322096 82.46389795474158 237.9758430971975 H 0.0 **** 0.06
1414 H 189.83911288968915 81.43241077459155 239.03753944064746 H 0.0 **** 0.06
1415 H 190.29302637874167 83.07188228049208 239.56118777209906 H 0.0 **** 0.06
1416 C 55.88707418532849 49.952355745566166 217.262382622034 C 0.0 **** -0.24
1417 H 55.97108678092226 49.837941006116594 216.18223693363484 H 0.0 **** 0.06
1418 H 55.646093892661696 50.98829167588701 217.5003969362199 H 0.0 **** 0.06
1419 H 56.834172933681515 49.68256823778664 217.7309210327552 H 0.0 **** 0.06
1420 H 55.09822471683796 49.300313135443716 217.63648757099313 H 0.0 **** 0.06
1421 C 159.8150169701892 118.37796814903476 6.870989027133433 C 0.0 **** -0.24
1422 H 160.5159211813152 118.72755075048588 7.629174270167823 H 0.0 **** 0.06
1423 H 159.13845118686882 119.18912362606125 6.600517014806329 H 0.0 **** 0.06
1424 H 159.23982184468056 117.54203425210943 7.267972210813582 H 0.0 **** 0.06
1425 H 160.36671010298883 118.0532206569124 5.989173107542953 H 0.0 **** 0.06
1426 C 64.96757798577673 203.94340493471177 243.43030325700647 C 0.0 **** -0.24
1427 H 64.57054258236312 203.25970937174844 242.68009673039478 H 0.0 **** 0.06
1428 H 64.70427250223833 203.58385678539992 244.4263448952154 H 0.0 **** 0.06
1429 H 64.54409361564461 204.93565385981472 243.2784196934851 H 0.0 **** 0.06
1430 H 66.05300190473224 203.9942304723696 243.33790595585776 H 0.0 **** 0.06
1431 C 162.43329055253682 118.18744764885184 99.6764184430537 C 0.0 **** -0.24
1432 H 162.8832915474026 119.1560198542135 99.89538090855712 H 0.0 **** 0.06
1433 H 162.01525044315403 117.76633589437446 100.59220441809649 H 0.0 **** 0.06
1434 H 163.1943962673058 117.51478704215793 99.28118260603054 H 0.0 **** 0.06
1435 H 161.64019701791912 118.31423912673722 98.93944888027539 H 0.0 **** 0.06
1436 C 87.26972204195533 34.24798540104288 143.08416411252796 C 0.0 **** -0.24
1437 H 87.01477421148172 33.23179364658674 142.78334441354406 H 0.0 **** 0.06
1438 H 87.0083602990805 34.939374845922 142.28305036029172 H 0.0 **** 0.06
1439 H 88.33908353564112 34.30970439238061 143.2845171134193 H 0.0 **** 0.06
1440 H 86.7152432355137 34.50946001369883 143.98513128390002 H 0.0 **** 0.06
1441 C 57.91208027167417 126.40395988190062 93.29795962379325 C 0.0 **** -0.24
1442 H 58.924623075707615 126.13080642098996 92.99801822522423 H 0.0 **** 0.06
1443 H 57.84940505339421 126.42456502640306 94.38638271386313 H 0.0 **** 0.06
1444 H 57.20778347748043 125.66963836624123 92.90713548759194 H 0.0 **** 0.06
1445 H 57.669102855787315 127.38932174215714 92.90032467984582 H 0.0 **** 0.06
1446 C 9.893154781587086 234.87662523549292 80.40144462200217 C 0.0 **** -0.24
1447 H 9.989797140428067 235.75426046835722 79.76352440268755 H 0.0 **** 0.06
1448 H 9.618042933417897 235.18960555967726 81.4099436959475 H 0.0 **** 0.06
1449 H 10.843961419579529 234.34394017525483 80.43342805031543 H 0.0 **** 0.06
1450 H 9.121354114597665 234.21915222191467 80.00162149484146 H 0.0 **** 0.06
1451 C 155.72255286727142 41.67218497422593 214.2665476274808 C 0.0 **** -0.24
1452 H 155.28677789010538 42.3178716880974 215.02858529066717 H 0.0 **** 0.06
1453 H 156.14233845337733 40.7840834414866 214.73927302485853 H 0.0 **** 0.06
1454 H 156.5115190897183 42.210978993608805 213.74135539757822 H 0.0 **** 0.06
1455 H 154.95056635006236 41.375943680258956 213.55699320873657 H 0.0 **** 0.06
1456 C 229.12527932187123 245.28972255562363 136.75650636956664 C 0.0 **** -0.24
1457 H 229.39678120305356 246.34100405120583 136.85172461019638 H 0.0 **** 0.06
1458 H 229.49642620158926 244.90235149890134 135.80767644435994 H 0.0 **** 0.06
1459 H 228.04018146573029 245.19071670085654 136.78950719644143 H 0.0 **** 0.06
1460 H 229.56724590171572 244.72485285171453 137.5779924255336 H 0.0 **** 0.06
1461 C 48.84244034525214 184.5048222375264 60.437509960731205 C 0.0 **** -0.24
1462 H 48.58684261403613 184.39179655605056 61.49125735358055 H 0.0 **** 0.06
1463 H 49.90385938415817 184.30013154143046 60.29776407993165 H 0.0 **** 0.06
1464 H 48.62215534773087 185.52348225399663 60.117764963960894 H 0.0 **** 0.06
1465 H 48.25526933976589 183.80336217614277 59.8446891082686 H 0.0 **** 0.06
1466 C 201.46862619615575 173.8464358935518 231.6533517193323 C 0.0 **** -0.24
1467 H 200.8711207148938 173.57892054821124 230.78181955736605 H 0.0 **** 0.06
1468 H 200.87539892292034 174.4691553539102 232.32346398703427 H 0.0 **** 0.06
1469 H 202.35288707144355 174.39750672626394 231.33118371448796 H 0.0 **** 0.06
1470 H 201.77557128757473 172.94024088799435 232.17499804217294 H 0.0 **** 0.06
1471 C 95.92072861550199 192.5013389961301 241.87484494929524 C 0.0 **** -0.24
1472 H 95.6103969069037 193.07463703215709 241.0011813051179 H 0.0 **** 0.06
1473 H 95.58412532664664 191.47024736404597 241.77128418348738 H 0.0 **** 0.06
1474 H 95.48191486531087 192.939187625733 242.77168029869105 H 0.0 **** 0.06
1475 H 97.00816019390689 192.52301405833595 241.95481579014805 H 0.0 **** 0.06
1476 C 169.540387295944 37.9562692874745 230.78841067944717 C 0.0 **** -0.24
1477 H 170.33751514183274 37.58236033546379 230.14628307797352 H 0.0 **** 0.06
1478 H 169.97221051042703 38.373964255712195 231.69819757721595 H 0.0 **** 0.06
1479 H 168.86791485856187 37.13745211558975 231.04730224874027 H 0.0 **** 0.06
1480 H 168.9825185601157 38.73121851711156 230.2616130469686 H 0.0 **** 0.06
1481 C 134.4585088735581 240.1649523786187 237.25622957465455 C 0.0 **** -0.24
1482 H 134.5449718929337 241.06315007770155 237.86791790343696 H 0.0 **** 0.06
1483 H 135.29692983765145 239.50152636628604 237.46558040600019 H 0.0 **** 0.06
1484 H 134.46710972751046 240.44088630919373 236.201362725878 H 0.0 **** 0.06
1485 H 133.52400316926406 239.65513932124261 237.49045874436172 H 0.0 **** 0.06
1486 C 243.90081748691898 136.9929976382414 132.4571629968822 C 0.0 **** -0.24
1487 H 244.47829454157335 137.70503775436666 133.04857462538314 H 0.0 **** 0.06
1488 H 243.10075623503428 137.51852440438728 131.9364969107838 H 0.0 **** 0.06
1489 H 243.47199901148366 136.2380499382069 133.11590896554284 H 0.0 **** 0.06
1490 H 244.55448388681674 136.51242254853565 131.72931384436484 H 0.0 **** 0.06
1491 C 213.94391291029748 146.8620878467452 232.19459007112414 C 0.0 **** -0.24
1492 H 214.51238039084066 147.2834221831298 231.36612482792856 H 0.0 **** 0.06
1493 H 213.04614846434296 147.4585875554358 232.3584518160007 H 0.0 **** 0.06
1494 H 214.55617862632542 146.8691913026637 233.09628503156736 H 0.0 **** 0.06
1495 H 213.66058247229265 145.83723894635017 231.9561342953843 H 0.0 **** 0.06
1496 C 37.50398974712894 100.32477260570707 241.13077652406912 C 0.0 **** -0.24
1497 H 38.2045485539347 100.91657682309591 240.5411209454111 H 0.0 **** 0.06
1498 H 37.95520323710525 99.36096369725522 241.37039989814537 H 0.0 **** 0.06
1499 H 36.59072866620133 100.1665166808034 240.55820878320435 H 0.0 **** 0.06
1500 H 37.267919276842406 100.85488603198885 242.05352191604922 H 0.0 **** 0.06
1501 C 182.85627014975395 49.61392368754612 144.60890547914275 C 0.0 **** -0.24
1502 H 182.21407539734346 48.831851155059596 144.20372771061503 H 0.0 **** 0.06
1503 H 182.7251918134057 49.66773173848809 145.69013429048536 H 0.0 **** 0.06
1504 H 182.58874751467457 50.57142155749126 144.16162699654078 H 0.0 **** 0.06
1505 H 183.89752668702045 49.38336038572213 144.37999507573906 H 0.0 **** 0.06
1506 C 127.05344845059943 111.32137298093335 113.95061471712415 C 0.0 **** -0.24
1507 H 126.45717661490028 110.65829094186029 114.57692907148274 H 0.0 **** 0.06
1508 H 127.85527103366121 110.75305350102701 113.48006814611347 H 0.0 **** 0.06
1509 H 127.48175563404868 112.11390478642085 114.56484502414139 H 0.0 **** 0.06
1510 H 126.41832187991506 111.76116988196912 113.18134525927627 H 0.0 **** 0.06
1511 C 62.681988707643654 80.15441145735235 61.53864498077144 C 0.0 **** -0.24
1512 H 63.062650060544 79.8349258330073 62.50859468880998 H 0.0 **** 0.06
1513 H 63.07298287442015 81.14473231332639 61.303668939730244 H 0.0 **** 0.06
1514 H 61.59295789264189 80.19014356194617 61.569607392009374 H 0.0 **** 0.06
1515 H 63.00071326120181 79.44675976576588 60.77264803482865 H 0.0 **** 0.06
1516 C 214.61327033765224 62.867497483890446 154.4845601856738 C 0.0 **** -0.24
1517 H 214.26947975195884 61.87387868481139 154.19938958479995 H 0.0 **** 0.06
1518 H 214.17373985603894 63.60924180186461 153.81691139962618 H 0.0 **** 0.06
1519 H 215.70005966672664 62.910767577529185 154.410653314543 H 0.0 **** 0.06
1520 H 214.3103636277238 63.0763328730047 155.51049189510707 H 0.0 **** 0.06
1521 C 184.95769664079899 64.17936988603648 107.96255038495207 C 0.0 **** -0.24
1522 H 184.69418569003315 63.67147805217195 107.03555717062969 H 0.0 **** 0.06
1523 H 184.3088654914987 63.828737647237574 108.76579490054954 H 0.0 **** 0.06
1524 H 184.83147500612034 65.25435244623708 107.83676820880123 H 0.0 **** 0.06
1525 H 185.9966949645634 63.96220629704635 108.21322755115216 H 0.0 **** 0.06
1526 C 133.32479549616895 99.21396892367852 230.16610941413416 C 0.0 **** -0.24
1527 H 134.09813257724582 98.65030732287977 230.68793019512208 H 0.0 **** 0.06
1528 H 132.68647900991007 99.71555480087909 230.89486469532744 H 0.0 **** 0.06
1529 H 132.72295204880115 98.5334138461152 229.56312696940432 H 0.0 **** 0.06
1530 H 133.79135540877147 99.95767902927298 229.51939100180164 H 0.0 **** 0.06
1531 C 179.55383217508512 81.48728680357416 24.800314691818045 C 0.0 **** -0.24
1532 H 179.22571825235372 82.44889481826132 24.408028022796216 H 0.0 **** 0.06
1533 H 179.0602611390894 80.6845585568135 24.252833587475266 H 0.0 **** 0.06
1534 H 179.29679372162315 81.41785454132878 25.856664989037597 H 0.0 **** 0.06
1535 H 180.63401011164257 81.39671654328598 24.682457872219857 H 0.0 **** 0.06
1536 C 17.960163612534956 178.8056727145605 63.12292946163183 C 0.0 **** -0.24
1537 H 18.61736874765134 177.96220167121967 62.91141450127091 H 0.0 **** 0.06
1538 H 18.210245643392255 179.63509238907346 62.46181105688095 H 0.0 **** 0.06
1539 H 18.089255180804997 179.11511455303156 64.16034195911149 H 0.0 **** 0.06
1540 H 16.924567476876888 178.50818777549924 62.958178364924436 H 0.0 **** 0.06
1541 C 217.16287033405658 65.26751727894393 0.5662898719313887 C 0.0 **** -0.24
1542 H 218.00631900580956 65.76027471689284 0.08243140421897976 H 0.0 **** 0.06
1543 H 217.51809721431124 64.70546683543742 1.4308855845369095 H 0.0 **** 0.06
1544 H 216.68691318854118 64.5859611456178 -0.138257923023275 H 0.0 **** 0.06
1545 H 216.4418085152363 66.01731694621296 0.8904933158268022 H 0.0 **** 0.06
1546 C 148.89676337375414 1.0076466798014536 77.99112218094692 C 0.0 **** -0.24
1547 H 148.30148513327705 1.2439662793002526 78.87247252073516 H 0.0 **** 0.06
1548 H 149.17425919322926 -0.04635310390328584 78.01114959466884 H 0.0 **** 0.06
1549 H 149.79859576975105 1.6201072076444234 77.98676286991969 H 0.0 **** 0.06
1550 H 148.31449549392 1.2131653344313094 77.09278662587889 H 0.0 **** 0.06
1551 C 63.38514770212859 48.368918546716856 194.4769224833724 C 0.0 **** -0.24
1552 H 63.00107263892079 49.181967539488 193.86097341989563 H 0.0 **** 0.06
1553 H 64.17017566163665 48.748277061308016 195.13116692574178 H 0.0 **** 0.06
1554 H 63.79342232795989 47.58886766800555 193.83321366763096 H 0.0 **** 0.06
1555 H 62.57557633030606 47.95592945107248 195.07909835014397 H 0.0 **** 0.06
1556 C 171.7298419094406 221.05753158686878 89.65389766333536 C 0.0 **** -0.24
1557 H 172.37593476617275 221.74365669225338 89.10727080833948 H 0.0 **** 0.06
1558 H 172.31664581117167 220.20646818621051 90.00173218284763 H 0.0 **** 0.06
1559 H 170.93533763695024 220.70629394326667 88.99653578856964 H 0.0 **** 0.06
1560 H 171.29317927319568 221.57249851342573 90.50931298399871 H 0.0 **** 0.06
1561 C 183.30203517004568 45.04706452334156 35.89446918316128 C 0.0 **** -0.24
1562 H 183.33404208832002 45.63084429138857 36.81509034355416 H 0.0 **** 0.06
1563 H 182.2865522488884 44.687965887877084 35.72776233147481 H 0.0 **** 0.06
1564 H 183.9795800441193 44.19764000161362 35.980163365588666 H 0.0 **** 0.06
1565 H 183.60875555792512 45.67332218175957 35.05661685748527 H 0.0 **** 0.06
1566 C 95.151448140083 153.48890715321843 200.6731857400655 C 0.0 **** -0.24
1567 H 94.07642483672086 153.6631280798571 200.7168152408442 H 0.0 **** 0.06
1568 H 95.3773577039158 152.82264092957402 199.84016487314682 H 0.0 **** 0.06
1569 H 95.4828087313185 153.03030448110835 201.60481888477176 H 0.0 **** 0.06
1570 H 95.66742193048327 154.43738926847706 200.5313221683939 H 0.0 **** 0.06
1571 C 245.70974292329572 36.60512757283797 161.53797113375975 C 0.0 **** -0.24
1572 H 245.75723019426354 36.772818147325296 162.61299968198682 H 0.0 **** 0.06
1573 H 245.27495829691665 37.47953502644137 161.0526593648579 H 0.0 **** 0.06
1574 H 245.09238330846955 35.73121887393788 161.33276087597136 H 0.0 **** 0.06
1575 H 246.71575985395228 36.43828254069726 161.15115301953873 H 0.0 **** 0.06
1576 C 172.24726648359655 223.69326922211826 104.77663036586026 C 0.0 **** -0.24
1577 H 171.91878704759193 223.44991956484085 105.78641735363223 H 0.0 **** 0.06
1578 H 171.93684735435195 224.70832044855177 104.52792663598714 H 0.0 **** 0.06
1579 H 171.80075045653254 222.99304716258976 104.07005759391089 H 0.0 **** 0.06
1580 H 173.33364297634085 223.62092218804952 104.72155228112669 H 0.0 **** 0.06
1581 C 44.05991468594024 206.0462329164956 153.41353692459836 C 0.0 **** -0.24
1582 H 43.90671893838655 205.22048151399133 152.71932064335311 H 0.0 **** 0.06
1583 H 44.279934699753966 205.65184636947686 154.40536756032571 H 0.0 **** 0.06
1584 H 43.15676474428702 206.65632425922655 153.4567378688708 H 0.0 **** 0.06
1585 H 44.89426927331917 206.65740496752903 153.0718006232786 H 0.0 **** 0.06
1586 C 177.1542722688932 46.38883017222206 9.176442901134138 C 0.0 **** -0.24
1587 H 177.66607665839473 45.751467739487055 8.45430719339538 H 0.0 **** 0.06
1588 H 176.6708944297286 47.21374579754284 8.65293010686564 H 0.0 **** 0.06
1589 H 177.87730850476942 46.78222446813267 9.89011655667423 H 0.0 **** 0.06
1590 H 176.40181551593233 45.804159223343234 9.705938215917158 H 0.0 **** 0.06
1591 C 190.4146741278058 17.634691832999465 240.4826345356439 C 0.0 **** -0.24
1592 H 190.23020028269445 16.93356385549842 241.29638297694424 H 0.0 **** 0.06
1593 H 190.15664385903358 17.16513431794627 239.5335124742092 H 0.0 **** 0.06
1594 H 191.46786956882394 17.91421308868965 240.47586749535515 H 0.0 **** 0.06
1595 H 189.80332806228668 18.52638289666976 240.625912645248 H 0.0 **** 0.06
1596 C 178.89602536286606 57.62247033715698 58.15678855340718 C 0.0 **** -0.24
1597 H 179.81435495192946 57.386220853786284 57.61984115355202 H 0.0 **** 0.06
1598 H 178.12669072869681 56.893415459834245 57.90071867230847 H 0.0 **** 0.06
1599 H 178.55858504875602 58.62090702541761 57.87573731454742 H 0.0 **** 0.06
1600 H 179.084168628393 57.5914702759552 59.23025521922028 H 0.0 **** 0.06
1601 C 205.78287742566005 188.63676626450473 178.7736918191654 C 0.0 **** -0.24
1602 H 205.68998445584384 189.04891349292262 177.7687629012873 H 0.0 **** 0.06
1603 H 204.79005291698098 188.45617225127677 179.18512086699832 H 0.0 **** 0.06
1604 H 206.31717275031625 189.3435558573198 179.40792169743565 H 0.0 **** 0.06
1605 H 206.33578263435828 187.69779137317377 178.73111760992646 H 0.0 **** 0.06
1606 C 17.40177098623812 182.75241569970174 36.66635804806235 C 0.0 **** -0.24
1607 H 18.39289940720161 182.36072959764562 36.89308257356869 H 0.0 **** 0.06
1608 H 17.357143491968856 183.8071433554244 36.94121536818963 H 0.0 **** 0.06
1609 H 16.65367593765322 182.1974336333268 37.23212237162254 H 0.0 **** 0.06
1610 H 17.204277478761895 182.64587467147356 35.59994026502237 H 0.0 **** 0.06
1611 C 11.632152244279382 247.16929959468223 30.123406139330513 C 0.0 **** -0.24
1612 H 12.36179223078976 247.02991367662014 30.920373901454326 H 0.0 **** 0.06
1613 H 10.742136478082472 246.57803211098417 30.339221499381182 H 0.0 **** 0.06
1614 H 12.064240484067213 246.8453511708222 29.175921705101217 H 0.0 **** 0.06
1615 H 11.36211443892941 248.22350271501568 30.057916153788227 H 0.0 **** 0.06
1616 C 17.629804138493967 81.9633072863376 111.32559038910978 C 0.0 **** -0.24
1617 H 17.17590154224635 82.87854653729553 110.94466766414092 H 0.0 **** 0.06
1618 H 17.93135693317626 82.1126242577295 112.36230197973356 H 0.0 **** 0.06
1619 H 18.504387587000764 81.71412880716022 110.72469485262536 H 0.0 **** 0.06
1620 H 16.906539967644846 81.14948877659941 111.26998512558617 H 0.0 **** 0.06
1621 C 73.23181372879324 158.91118688904294 145.02516453364203 C 0.0 **** -0.24
1622 H 72.24298022645868 158.45329077783055 145.03574847857195 H 0.0 **** 0.06
1623 H 73.78704000587138 158.59927748802565 145.90955860423165 H 0.0 **** 0.06
1624 H 73.12890380432819 159.99671977362928 145.02447066504075 H 0.0 **** 0.06
1625 H 73.76740939603317 158.59645456880813 144.12941042745163 H 0.0 **** 0.06
1626 C 232.95376655408248 7.574524430839574 192.06801007626396 C 0.0 **** -0.24
1627 H 233.42656841598364 6.627707587719641 191.8089756687355 H 0.0 **** 0.06
1628 H 233.49819993775435 8.038919000962807 192.88969769004663 H 0.0 **** 0.06
1629 H 231.92248170139703 7.3934261873469325 192.37155010915882 H 0.0 **** 0.06
1630 H 232.9674550567157 8.236361277172222 191.20200361926442 H 0.0 **** 0.06
1631 C 66.94214291566385 40.78573302101866 163.74688462535443 C 0.0 **** -0.24
1632 H 66.89050334952887 41.8193670993996 163.40292164961696 H 0.0 **** 0.06
1633 H 66.08489412327822 40.57232746498106 164.38469034577614 H 0.0 **** 0.06
1634 H 67.86287824576883 40.63621340678078 164.3101455762465 H 0.0 **** 0.06
1635 H 66.93066323833077 40.11642484141393 162.88566957481734 H 0.0 **** 0.06
1636 C 205.27536547527615 170.29447453737495 197.63418408367596 C 0.0 **** -0.24
1637 H 204.20791517653322 170.5060279323279 197.679223751211 H 0.0 **** 0.06
1638 H 205.83346101414807 171.2296627229138 197.6817235217215 H 0.0 **** 0.06
1639 H 205.50454781149855 169.77994452150088 196.70146125230593 H 0.0 **** 0.06
1640 H 205.55526730917396 169.66123183751588 198.47713202574408 H 0.0 **** 0.06
1641 C 125.91271439007727 87.22204097728081 72.01845485111429 C 0.0 **** -0.24
1642 H 125.35508683665014 87.63716931992326 71.17813256014998 H 0.0 **** 0.06
1643 H 125.56655852013873 86.20748322280016 72.21816778179019 H 0.0 **** 0.06
1644 H 125.75363466272046 87.84125389678911 72.90107683492383 H 0.0 **** 0.06
1645 H 126.9752550332199 87.20219733158888 71.77474152141866 H 0.0 **** 0.06
1646 C 90.92392088097742 139.31585845633114 119.07698700045589 C 0.0 **** -0.24
1647 H 91.0283585225036 138.94148435804848 118.0596107852376 H 0.0 **** 0.06
1648 H 89.9361075960098 139.7605822392766 119.20084275401521 H 0.0 **** 0.06
1649 H 91.68837162641202 140.0695150825433 119.2679407222559 H 0.0 **** 0.06
1650 H 91.04273293461745 138.49135142101005 119.78087152658478 H 0.0 **** 0.06
1651 C 144.78970274657692 94.96957661984473 79.37948595626457 C 0.0 **** -0.24
1652 H 145.2597439109629 94.15445502215607 79.93080679356311 H 0.0 **** 0.06
1653 H 144.12614997573084 94.55823143104311 78.61855138013178 H 0.0 **** 0.06
1654 H 145.56000233175857 95.57540286600144 78.90057187880458 H 0.0 **** 0.06
1655 H 144.21572303762727 95.58930099385262 80.06748999036219 H 0.0 **** 0.06
1656 C 50.44839400390558 13.879281699348539 239.95833446111695 C 0.0 **** -0.24
1657 H 49.544323916575166 13.320279816944662 239.71348398015493 H 0.0 **** 0.06
1658 H 51.316703585588826 13.361030945016353 239.55092778571276 H 0.0 **** 0.06
1659 H 50.545961263482525 13.955921954240665 241.04087335753934 H 0.0 **** 0.06
1660 H 50.38592255042474 14.877886089347896 239.52732733016848 H 0.0 **** 0.06
1661 C 179.9555799469734 99.17178919865685 22.56918127992907 C 0.0 **** -0.24
1662 H 179.93883508217704 99.81071530506296 21.6860937352741 H 0.0 **** 0.06
1663 H 178.93404276567216 98.94363912388718 22.871788104857018 H 0.0 **** 0.06
1664 H 180.4689317627733 99.68786949894016 23.380309261790572 H 0.0 **** 0.06
1665 H 180.48260992367682 98.24633885676226 22.336917124255095 H 0.0 **** 0.06
1666 C 210.58752133710456 181.1235958287479 67.64022762601263 C 0.0 **** -0.24
1667 H 210.666408976408 180.07159860419358 67.36390325072026 H 0.0 **** 0.06
1668 H 210.93989762803213 181.25741882618175 68.6631723595203 H 0.0 **** 0.06
1669 H 209.54660033740473 181.44055605752635 67.56894463962314 H 0.0 **** 0.06
1670 H 211.19677763178908 181.7227877140997 66.96402394747764 H 0.0 **** 0.06
1671 C 66.59798925123863 63.87472045626566 34.238212840828254 C 0.0 **** -0.24
1672 H 66.29071644762939 63.7126381497192 35.271892350936156 H 0.0 **** 0.06
1673 H 65.75864304662022 63.67029793778039 33.57321137028612 H 0.0 **** 0.06
1674 H 67.42467160617824 63.2074512538413 33.99601941222477 H 0.0 **** 0.06
1675 H 66.91720877762188 64.90956167370993 34.11288877445543 H 0.0 **** 0.06
1676 C 92.09898140219354 14.12138744004929 183.341844714724 C 0.0 **** -0.24
1677 H 91.98629828045958 13.054926300066853 183.14369393450085 H 0.0 **** 0.06
1678 H 92.79856791490246 14.552086629147851 182.62487714418626 H 0.0 **** 0.06
1679 H 92.4804480050594 14.26437360196914 184.35261954267827 H 0.0 **** 0.06
1680 H 91.13154715138003 14.61271031196307 183.24607227958788 H 0.0 **** 0.06
1681 C 225.58142639516385 117.470339837946 180.90094182246602 C 0.0 **** -0.24
1682 H 224.74755107364967 118.09763289827254 181.21689108928086 H 0.0 **** 0.06
1683 H 226.52119619085693 117.97337825786931 181.13127779360684 H 0.0 **** 0.06
1684 H 225.51708267687022 117.29330320421295 179.82749527883016 H 0.0 **** 0.06
1685 H 225.53974355311203 116.51857891883466 181.43047582658033 H 0.0 **** 0.06
1686 C 40.95245912093155 116.03410346164142 155.2540409586274 C 0.0 **** -0.24
1687 H 40.11581038367217 116.48714709746378 154.72144549189795 H 0.0 **** 0.06
1688 H 40.923602067094706 114.95232420168156 155.12231595943499 H 0.0 **** 0.06
1689 H 40.87896820079183 116.27373573679779 156.3152925951056 H 0.0 **** 0.06
1690 H 41.88910146445862 116.42387994147012 154.8570472902488 H 0.0 **** 0.06
1691 C 89.6007053612727 191.048760390587 69.93073816082185 C 0.0 **** -0.24
1692 H 89.99461433062163 191.7858617927323 69.23141219219681 H 0.0 **** 0.06
1693 H 88.62179657461351 191.37157086575743 70.28424848190124 H 0.0 **** 0.06
1694 H 90.28016135054531 190.9515317354522 70.77777990778432 H 0.0 **** 0.06
1695 H 89.50699663253644 190.08523498470655 69.4286564477566 H 0.0 **** 0.06
1696 C 30.943090596479493 73.52525462207768 127.12136587105275 C 0.0 **** -0.24
1697 H 31.84009915907663 74.01996416303027 126.74750267704925 H 0.0 **** 0.06
1698 H 30.258264312079262 73.34200044315389 126.29378298763672 H 0.0 **** 0.06
1699 H 30.45855966819235 74.16192257510457 127.86165585922922 H 0.0 **** 0.06
1700 H 31.217543986772597 72.57589004741075 127.5823504911103 H 0.0 **** 0.06
1701 C 165.7612901380039 0.8239967995251334 35.6423514212603 C 0.0 **** -0.24
1702 H 166.22851702322197 -0.06986516294310263 35.23096184489978 H 0.0 **** 0.06
1703 H 166.2009992224229 1.0498158258456272 36.61425433080257 H 0.0 **** 0.06
1704 H 164.69032623969687 0.654186198075621 35.75731779074475 H 0.0 **** 0.06
1705 H 165.92466332784207 1.6629084223481385 34.96566681115789 H 0.0 **** 0.06
1706 C 223.20976577684408 227.2273268124512 127.93861452035978 C 0.0 **** -0.24
1707 H 222.71438007779872 226.6585134319948 127.1510328245783 H 0.0 **** 0.06
1708 H 222.48193620515576 227.49932058182512 128.7026387782815 H 0.0 **** 0.06
1709 H 223.64629759715427 228.13075692627467 127.51431326482876 H 0.0 **** 0.06
1710 H 223.9958670597819 226.61897887263336 128.38519163577408 H 0.0 **** 0.06
1711 C 207.66400656183293 183.04858734111983 206.92391710440137 C 0.0 **** -0.24
1712 H 207.62221056781206 182.12296119771443 206.34916679858065 H 0.0 **** 0.06
1713 H 207.23546789790274 182.88114997250875 207.91246195312783 H 0.0 **** 0.06
1714 H 207.09544292873028 183.8227975163805 206.40770922112347 H 0.0 **** 0.06
1715 H 208.70139336619474 183.36580706175286 207.02654667389044 H 0.0 **** 0.06
1716 C 209.72957370770558 158.83228678877998 233.2927458623551 C 0.0 **** -0.24
1717 H 209.77528352606083 159.23939509759512 234.30290179477672 H 0.0 **** 0.06
1718 H 209.8843323495423 157.7532918589018 233.32790672017535 H 0.0 **** 0.06
1719 H 210.50645108894665 159.291251005036 232.6814898202418 H 0.0 **** 0.06
1720 H 208.75222786627253 159.04520919358689 232.8586851142265 H 0.0 **** 0.06
1721 C 39.44809528001254 29.54542904206167 232.83737954898714 C 0.0 **** -0.24
1722 H 38.56606154935794 29.045701322675228 232.43499007549468 H 0.0 **** 0.06
1723 H 39.182369928800526 30.557283191769926 233.14608297073852 H 0.0 **** 0.06
1724 H 40.22152945840136 29.590224526264905 232.0708467693857 H 0.0 **** 0.06
1725 H 39.81948228278981 28.9888443790596 233.69709331744076 H 0.0 **** 0.06
1726 C 112.51009651941285 100.76639423055019 148.17005109250485 C 0.0 **** -0.24
1727 H 113.19203423054583 101.22934890381873 147.45623633682328 H 0.0 **** 0.06
1728 H 112.1515118965657 101.5216497815984 148.87033439407944 H 0.0 **** 0.06
1729 H 113.0341068445239 99.98266365876466 148.71651713232967 H 0.0 **** 0.06
1730 H 111.66413837391553 100.33507058518094 147.6360845341548 H 0.0 **** 0.06
1731 C 217.9792791776793 233.51443562802103 165.83357403687094 C 0.0 **** -0.24
1732 H 217.61592473986033 234.43187490097372 165.37105885060575 H 0.0 **** 0.06
1733 H 218.67626006706703 233.0187745508557 165.15651693243913 H 0.0 **** 0.06
1734 H 217.1371777843633 232.852666678903 166.03677018086506 H 0.0 **** 0.06
1735 H 218.4871923859743 233.7548995825283 166.76656482494798 H 0.0 **** 0.06
1736 C 160.59756766411965 81.4261862985654 127.4941770499162 C 0.0 **** -0.24
1737 H 159.9974450198231 82.14573876474842 128.0503655260197 H 0.0 **** 0.06
1738 H 161.43652196329313 81.1000837411357 128.10948378779528 H 0.0 **** 0.06
1739 H 160.97502356590928 81.89523476272913 126.58524957500669 H 0.0 **** 0.06
1740 H 159.98247127639152 80.56553048331133 127.23117786385183 H 0.0 **** 0.06
1741 C 165.83679277429496 245.12867945156182 157.32584536417977 C 0.0 **** -0.24
1742 H 165.00595606172655 244.50528684539742 156.99741794186133 H 0.0 **** 0.06
1743 H 166.3637746037717 244.6320413777464 158.14131170694674 H 0.0 **** 0.06
1744 H 165.45552413533585 246.08955800110488 157.6704367165858 H 0.0 **** 0.06
1745 H 166.52240635783193 245.28756614944535 156.4933847931636 H 0.0 **** 0.06
1746 C 167.68835221032282 227.2167484119747 196.13466681883767 C 0.0 **** -0.24
1747 H 168.45818258862394 226.46458614086978 195.96719545002264 H 0.0 **** 0.06
1748 H 167.38866302299232 227.20264589185464 197.1830274859854 H 0.0 **** 0.06
1749 H 166.82471355440532 226.99839468774698 195.50618332943705 H 0.0 **** 0.06
1750 H 168.08110004534925 228.202468486409 195.88273497432093 H 0.0 **** 0.06
1751 C 49.562690004158384 145.06264851928495 150.58907161382643 C 0.0 **** -0.24
1752 H 48.748289009438764 144.46629169029484 150.9998064631074 H 0.0 **** 0.06
1753 H 50.487199014550896 144.82779591848941 151.1172012583126 H 0.0 **** 0.06
1754 H 49.33407591158647 146.12204969575606 150.7109622458225 H 0.0 **** 0.06
1755 H 49.680268682145055 144.83600350723228 149.52918111641264 H 0.0 **** 0.06
1756 C 158.68719213551555 139.76981502618142 220.39357035583566 C 0.0 **** -0.24
1757 H 158.45472879566745 140.6110885744101 219.7403344217526 H 0.0 **** 0.06
1758 H 159.76665511018865 139.61868001010512 220.42091024168639 H 0.0 **** 0.06
1759 H 158.20317695519822 138.8700430329765 220.01355951896835 H 0.0 **** 0.06
1760 H 158.32410624451262 139.98142731122644 221.39920520197825 H 0.0 **** 0.06
1761 C 39.249287269863714 192.51892768338712 94.87990248070494 C 0.0 **** -0.24
1762 H 40.319492009499385 192.67737950040322 95.00669124437971 H 0.0 **** 0.06
1763 H 38.885723599886234 193.13082603275208 94.05454774841857 H 0.0 **** 0.06
1764 H 38.729824484315856 192.79846434679902 95.79606088936359 H 0.0 **** 0.06
1765 H 39.06128519711967 191.46697624835136 94.66255258171984 H 0.0 **** 0.06
1766 C 229.7853770763429 10.319067887368277 180.0695550821161 C 0.0 **** -0.24
1767 H 229.037149981673 9.527341989332939 180.1076324565024 H 0.0 **** 0.06
1768 H 230.7457588621454 9.897928680475701 179.77155648012686 H 0.0 **** 0.06
1769 H 229.87856307102965 10.777033945343504 181.05449773696392 H 0.0 **** 0.06
1770 H 229.47900428729628 11.073973317529948 179.3455004752567 H 0.0 **** 0.06
1771 C 18.59738205124924 100.44213226613337 243.60531829126327 C 0.0 **** -0.24
1772 H 17.639639250982853 99.92142211190426 243.63976023403785 H 0.0 **** 0.06
1773 H 19.157793969207304 100.11231898837525 242.73015015915564 H 0.0 **** 0.06
1774 H 19.16581078064388 100.2175497850969 244.50777275360372 H 0.0 **** 0.06
1775 H 18.42415905194831 101.51611158285382 243.54312680420276 H 0.0 **** 0.06
1776 C 127.9174408751488 123.40802635537344 27.115704208423125 C 0.0 **** -0.24
1777 H 128.79607046087526 123.79759460196931 26.60199884837354 H 0.0 **** 0.06
1778 H 127.02754744859496 123.92709838627437 26.75838293261606 H 0.0 **** 0.06
1779 H 128.0241969009223 123.56590913097912 28.188531194095702 H 0.0 **** 0.06
1780 H 127.82127704451088 122.34102206025742 26.912756114008374 H 0.0 **** 0.06
1781 C 36.247836385673196 233.75875101338343 135.1174609521728 C 0.0 **** -0.24
1782 H 37.158947677345665 234.27491783457015 134.81494881095153 H 0.0 **** 0.06
1783 H 36.466546377761304 232.7026436200726 135.28400436926185 H 0.0 **** 0.06
1784 H 35.49844574772207 233.8545411345674 134.33209830461968 H 0.0 **** 0.06
1785 H 35.86868996286633 234.20111895856672 136.03837579871518 H 0.0 **** 0.06
1786 C 194.56559739322566 67.95701751037907 93.47634496188144 C 0.0 **** -0.24
1787 H 194.0017185190567 67.81711255989589 94.3996151321144 H 0.0 **** 0.06
1788 H 195.15230262780346 68.87263438783157 93.54475740423331 H 0.0 **** 0.06
1789 H 193.8738031265559 68.03000983876564 92.6371766940525 H 0.0 **** 0.06
1790 H 195.23189213729157 67.1075901972078 93.32591184467773 H 0.0 **** 0.06
1791 C 186.59229625498395 93.30497170315883 205.18701582854578 C 0.0 **** -0.24
1792 H 186.99832414219645 93.13792627641422 204.1886582960547 H 0.0 **** 0.06
1793 H 186.73757649543765 94.34848793951531 205.46738538908502 H 0.0 **** 0.06
1794 H 187.1071674178486 92.66092259748399 205.89939423718462 H 0.0 **** 0.06
1795 H 185.52759924810084 93.07210908477069 205.18921825729146 H 0.0 **** 0.06
1796 C 53.89746220925417 39.501713545967476 162.70628709839212 C 0.0 **** -0.24
1797 H 53.92577307723275 40.32482880609379 161.9927204746886 H 0.0 **** 0.06
1798 H 54.59133045478245 38.7226557734399 162.3901519751667 H 0.0 **** 0.06
1799 H 52.88690804095256 39.09352374017399 162.7489361261633 H 0.0 **** 0.06
1800 H 54.184282992010026 39.865072463952146 163.69234677702002 H 0.0 **** 0.06
1801 C 149.91656596993295 65.02812093294162 172.93458565073266 C 0.0 **** -0.24
1802 H 149.47591184111323 66.01201853247355 173.09342524022873 H 0.0 **** 0.06
1803 H 150.69154620930934 64.85301064335019 173.68186779259904 H 0.0 **** 0.06
1804 H 150.35656194665083 64.98408785829557 171.93867039788645 H 0.0 **** 0.06
1805 H 149.14414880125247 64.2643245178975 173.02505290376905 H 0.0 **** 0.06
1806 C 136.73772126571004 63.15475735374625 160.19192591486882 C 0.0 **** -0.24
1807 H 136.2005577873822 64.04562498118386 160.51634359395416 H 0.0 **** 0.06
1808 H 137.60147503760675 62.99648930811466 160.83917797962224 H 0.0 **** 0.06
1809 H 137.07406036374064 63.286607535229535 159.16347751513095 H 0.0 **** 0.06
1810 H 136.07628734437364 62.291242454909195 160.25040446946272 H 0.0 **** 0.06
1811 C 124.47976426864048 175.89491614091 135.75703270966903 C 0.0 **** -0.24
1812 H 125.3313265041767 175.2739870653976 135.47622953046294 H 0.0 **** 0.06
1813 H 124.83633078286209 176.78455846584365 136.27726769006287 H 0.0 **** 0.06
1814 H 123.8187549884342 175.3293367174321 136.41402678856207 H 0.0 **** 0.06
1815 H 123.93555857582359 176.19106885901184 134.86057563056949 H 0.0 **** 0.06
1816 C 221.10072961797073 143.14161091357522 41.22638055756394 C 0.0 **** -0.24
1817 H 220.6609395121096 142.38185850429858 41.87148325924878 H 0.0 **** 0.06
1818 H 222.04695424615392 142.775291643746 40.827288185461896 H 0.0 **** 0.06
1819 H 221.27599194768487 144.050489429907 41.801725258093 H 0.0 **** 0.06
1820 H 220.41899663558524 143.35820119209978 40.40374676060304 H 0.0 **** 0.06
1821 C 98.30314105646457 37.37596482203156 142.58297555372707 C 0.0 **** -0.24
1822 H 98.20314758133247 38.325872706784494 142.05706026365002 H 0.0 **** 0.06
1823 H 98.84495477144898 37.532482895035514 143.51588581889106 H 0.0 **** 0.06
1824 H 98.85186601261964 36.67168923845591 141.95694887475352 H 0.0 **** 0.06
1825 H 97.3136413975709 36.975343807505695 142.79944444498622 H 0.0 **** 0.06
1826 C 103.89034945196465 177.8358966764876 228.6203965330373 C 0.0 **** -0.24
1827 H 104.44490158321739 177.13767398240947 227.99210711828653 H 0.0 **** 0.06
1828 H 103.01133885500658 177.33763794680942 229.02810864779292 H 0.0 **** 0.06
1829 H 103.57921582238964 178.69249948272517 228.0223672135147 H 0.0 **** 0.06
1830 H 104.52872340828532 178.17532422421846 229.43654186802797 H 0.0 **** 0.06
1831 C 111.66943498449663 167.22038372733755 107.46937366952253 C 0.0 **** -0.24
1832 H 111.88020972497921 166.34585057411354 106.85569922845724 H 0.0 **** 0.06
1833 H 111.80221584533274 166.96575559328983 108.52192597089078 H 0.0 **** 0.06
1834 H 110.642611736823 167.54362977820887 107.30116080316856 H 0.0 **** 0.06
1835 H 112.3520525069467 168.02613600673203 107.20163286290688 H 0.0 **** 0.06
1836 C 214.59815019340442 109.99686043948458 15.67432552653979 C 0.0 **** -0.24
1837 H 214.04790379785868 109.99847978504215 14.733938456650165 H 0.0 **** 0.06
1838 H 215.6633855685784 110.11276073512641 15.47241145064342 H 0.0 **** 0.06
1839 H 214.42677408737086 109.0533317131684 16.19383717765234 H 0.0 **** 0.06
1840 H 214.25389206727306 110.82238998419061 16.29770974795379 H 0.0 **** 0.06
1841 C 202.99807986086685 220.47904319409182 117.26823974531848 C 0.0 **** -0.24
1842 H 203.7248938371691 221.27492174147648 117.43130829646643 H 0.0 **** 0.06
1843 H 203.07268212427633 219.74773008832437 118.07257375879257 H 0.0 **** 0.06
1844 H 203.1998882202969 219.9921104261017 116.31347776073036 H 0.0 **** 0.06
1845 H 201.99309985623424 220.90319439082762 117.25342282312286 H 0.0 **** 0.06
1846 C 20.26809470690185 174.8211574802912 61.82695172855088 C 0.0 **** -0.24
1847 H 19.33065842454991 175.228748730762 61.447383333184774 H 0.0 **** 0.06
1848 H 20.059035559975428 173.94607536789604 62.44207052699841 H 0.0 **** 0.06
1849 H 20.77494727044646 175.5761366678725 62.4282340893632 H 0.0 **** 0.06
1850 H 20.90471456279323 174.53535945620337 60.99005256473873 H 0.0 **** 0.06
1851 C 42.41297953576225 167.0385760225108 103.80973602279835 C 0.0 **** -0.24
1852 H 42.88500511991052 168.01526386006876 103.92116894017911 H 0.0 **** 0.06
1853 H 41.59119240682435 167.11247816558708 103.09871074900445 H 0.0 **** 0.06
1854 H 42.031209883823635 166.70787869751578 104.77541338955419 H 0.0 **** 0.06
1855 H 43.1473875785353 166.32025811341478 103.44414501374308 H 0.0 **** 0.06
1856 C 65.09081779260254 113.96041849942645 174.57363977334066 C 0.0 **** -0.24
1857 H 65.4532449816125 113.12649780813962 173.97280254143206 H 0.0 **** 0.06
1858 H 65.30764846261823 113.7720001458006 175.62507286816432 H 0.0 **** 0.06
1859 H 64.01396007580732 114.0658534427771 174.43761951516476 H 0.0 **** 0.06
1860 H 65.58761660785609 114.87799732599035 174.25811385468782 H 0.0 **** 0.06
1861 C 130.99561821431624 93.34859100950615 181.95703852475117 C 0.0 **** -0.24
1862 H 131.57444397788268 93.72930914870531 181.1151840190127 H 0.0 **** 0.06
1863 H 130.55133720096697 94.18310490616668 182.49878431252944 H 0.0 **** 0.06
1864 H 131.65052328063146 92.7889133976065 182.62403543884437 H 0.0 **** 0.06
1865 H 130.2065053983398 92.69331282293439 181.5870182014009 H 0.0 **** 0.06
1866 C 235.31308777786654 144.01639213851706 77.70899872455593 C 0.0 **** -0.24
1867 H 235.47263026117395 144.91091579239807 78.31158332764122 H 0.0 **** 0.06
1868 H 235.27994928265474 143.14207913317492 78.35822839681569 H 0.0 **** 0.06
1869 H 236.1293693257583 143.91018733729663 76.99533176282617 H 0.0 **** 0.06
1870 H 234.36944899920303 144.10639359280296 77.17066967544449 H 0.0 **** 0.06
1871 C 159.23505761073196 22.150952468553413 159.066432317329 C 0.0 **** -0.24
1872 H 159.14418984778416 22.303019386607644 157.99110945082333 H 0.0 **** 0.06
1873 H 159.7633191973553 22.995171407110348 159.50942176188678 H 0.0 **** 0.06
1874 H 159.7898198317297 21.23242615685146 159.25741624389119 H 0.0 **** 0.06
1875 H 158.24070066057917 22.0724527058845 159.50700197224157 H 0.0 **** 0.06
1876 C 98.11964372830809 112.40101575571256 135.04171889997087 C 0.0 **** -0.24
1877 H 98.8127849991748 112.30745084689966 135.87746129523916 H 0.0 **** 0.06
1878 H 97.21816292882372 111.8236680000461 135.25073450143623 H 0.0 **** 0.06
1879 H 98.59096039267413 112.02385423520039 134.13482345605885 H 0.0 **** 0.06
1880 H 97.8555536602988 113.45008542644945 134.90473408237412 H 0.0 **** 0.06
1881 C 147.33981390759058 226.81029909625983 222.47960497106772 C 0.0 **** -0.24
1882 H 146.97554252782257 227.18266858387733 221.52227122932672 H 0.0 **** 0.06
1883 H 146.57181672257954 226.19175587130866 222.94383139208801 H 0.0 **** 0.06
1884 H 147.57351586224863 227.65141548541965 223.13149466657975 H 0.0 **** 0.06
1885 H 148.23978592488012 226.2153698675633 222.3190834300401 H 0.0 **** 0.06
1886 C 40.15800782066087 143.44808362604675 144.3423202275602 C 0.0 **** -0.24
1887 H 40.612721407088856 143.49977271909793 143.35263120115025 H 0.0 **** 0.06
1888 H 39.60388528826947 142.5142674792988 144.43894421590886 H 0.0 **** 0.06
1889 H 39.478915412668044 144.2905020321563 144.47366062249841 H 0.0 **** 0.06
1890 H 40.93803024832357 143.48833934839266 145.102499848782 H 0.0 **** 0.06
1891 C 6.91189917786599 191.6752511800953 210.1251909757318 C 0.0 **** -0.24
1892 H 7.055779789027923 191.70847291210794 211.20482389880723 H 0.0 **** 0.06
1893 H 7.703458618357246 192.24472959234964 209.6363100326861 H 0.0 **** 0.06
1894 H 5.944179791006036 192.10809535212366 209.87391887404414 H 0.0 **** 0.06
1895 H 6.946579628094469 190.6395961873686 209.78618274959828 H 0.0 **** 0.06
1896 C 207.40910012831608 199.15245088087946 149.82191990316971 C 0.0 **** -0.24
1897 H 207.44321756964456 198.06515007990134 149.88143062498733 H 0.0 **** 0.06
1898 H 207.64009832022265 199.46834946863092 148.80442027658358 H 0.0 **** 0.06
1899 H 208.14222597921406 199.57628161566313 150.5080529528974 H 0.0 **** 0.06
1900 H 206.41312739840146 199.5008224794029 150.09331465022098 H 0.0 **** 0.06
1901 C 32.23472528880143 101.31384681242378 9.64896921065629 C 0.0 **** -0.24
1902 H 33.053029360100155 100.63932681055536 9.900189789454558 H 0.0 **** 0.06
1903 H 32.24104081890093 102.16278817444658 10.333133119366124 H 0.0 **** 0.06
1904 H 31.28661275459838 100.78335546012198 9.735854851472027 H 0.0 **** 0.06
1905 H 32.359321298609814 101.67043273319274 8.625980014702307 H 0.0 **** 0.06
1906 C 14.655651037893236 4.188650786818982 223.6414427952139 C 0.0 **** -0.24
1907 H 14.487207569938391 3.367058447542661 224.33796802763982 H 0.0 **** 0.06
1908 H 14.849545697114237 3.7867765998855702 222.64675763301813 H 0.0 **** 0.06
1909 H 15.515596640912491 4.773501526963798 223.9709875731337 H 0.0 **** 0.06
1910 H 13.772403743710584 4.8268144693005866 223.61047663590472 H 0.0 **** 0.06
1911 C 162.40240152785194 65.18290213759113 30.13958339432169 C 0.0 **** -0.24
1912 H 161.74145684680758 65.7740400168137 29.504596214124845 H 0.0 **** 0.06
1913 H 161.9956424827675 65.14516133666717 31.150139320642424 H 0.0 **** 0.06
1914 H 163.39053012477777 65.64180908062295 30.161851233447422 H 0.0 **** 0.06
1915 H 162.4801004975896 64.1717979004791 29.7407267100986 H 0.0 **** 0.06
1916 C 136.6731636591997 239.53940844361117 33.09531688672767 C 0.0 **** -0.24
1917 H 136.56969186955558 238.9621348542891 32.17673844297974 H 0.0 **** 0.06
1918 H 136.29902610909969 240.55117768708044 32.932097151424784 H 0.0 **** 0.06
1919 H 137.72453930961063 239.5822667857591 33.3818478365624 H 0.0 **** 0.06
1920 H 136.0996195277539 239.06302865399806 33.89054452463385 H 0.0 **** 0.06
1921 C 181.09579197486772 160.13868629760574 60.343317862335255 C 0.0 **** -0.24
1922 H 181.97357547076643 159.49287251681017 60.31931235396789 H 0.0 **** 0.06
1923 H 181.19154676898535 160.85204851481177 61.16232515325498 H 0.0 **** 0.06
1924 H 180.202127142277 159.53187551225284 60.490716680164894 H 0.0 **** 0.06
1925 H 181.01702528766117 160.67813125530114 59.398982898385185 H 0.0 **** 0.06
1926 C 162.5104101388127 4.085797330373765 171.21288432012372 C 0.0 **** -0.24
1927 H 162.7700633735013 4.9182972296160585 171.86814739821014 H 0.0 **** 0.06
1928 H 163.41725521894682 3.552757987572761 170.92857881335448 H 0.0 **** 0.06
1929 H 162.01704465747983 4.468642860405311 170.319219183715 H 0.0 **** 0.06
1930 H 161.83839003422545 3.407145437874618 171.73714393751143 H 0.0 **** 0.06
1931 C 11.30203755947295 128.90490649935404 127.74710348404912 C 0.0 **** -0.24
1932 H 11.050742636083527 127.96527771695273 128.23850370402963 H 0.0 **** 0.06
1933 H 12.346540285767418 128.88332866506593 127.43483912610967 H 0.0 **** 0.06
1934 H 11.147169423673319 129.7309680012406 128.4409772635956 H 0.0 **** 0.06
1935 H 10.663697892367594 129.0400516141569 126.87409384246158 H 0.0 **** 0.06
1936 C 161.4037925414382 122.59789739068631 179.5830619394704 C 0.0 **** -0.24
1937 H 161.34760180312807 123.5056143666034 180.18342520964143 H 0.0 **** 0.06
1938 H 162.24002742642193 122.67432469682856 178.8870973810051 H 0.0 **** 0.06
1939 H 160.47638919164652 122.47322277231623 179.0245166589187 H 0.0 **** 0.06
1940 H 161.5531098333065 121.73883053243398 180.2372691315502 H 0.0 **** 0.06
1941 C 27.48870079550423 189.21471504386398 157.43778363655977 C 0.0 **** -0.24
1942 H 27.87557557793079 189.8104837394767 156.61143738537183 H 0.0 **** 0.06
1943 H 26.637886735749504 188.6256787852849 157.09475551105442 H 0.0 **** 0.06
1944 H 27.172064279515126 189.8761150448725 158.24479350821142 H 0.0 **** 0.06
1945 H 28.27027693214572 188.5472825677278 157.8020214849366 H 0.0 **** 0.06
1946 C 133.80240544699532 52.348722387814334 98.4239510395642 C 0.0 **** -0.24
1947 H 134.61026841171105 52.99711134813026 98.7643122640983 H 0.0 **** 0.06
1948 H 133.4623825607017 51.72697637786125 99.2528888640285 H 0.0 **** 0.06
1949 H 134.16487573179458 51.71203354846874 97.61681400983431 H 0.0 **** 0.06
1950 H 132.9753181279017 52.95848078270642 98.06251664713056 H 0.0 **** 0.06
1951 C 124.48974992591235 167.6981975061655 181.6042012829522 C 0.0 **** -0.24
1952 H 125.15890450006387 168.19751053595868 182.30488896135097 H 0.0 **** 0.06
1953 H 123.66979429705435 168.36852621323874 181.34471955150212 H 0.0 **** 0.06
1954 H 124.09008514344356 166.79487706429046 182.0630452564692 H 0.0 **** 0.06
1955 H 125.04118504317779 167.4336061570601 180.70190016925267 H 0.0 **** 0.06
1956 C 142.2271139812694 136.6801385032576 194.13804634760658 C 0.0 **** -0.24
1957 H 142.31577584491737 137.69968874963394 194.5139052880059 H 0.0 **** 0.06
1958 H 141.9988628641773 136.7040207286865 193.07292117809092 H 0.0 **** 0.06
1959 H 141.42600501028923 136.1661091402807 194.6705299752131 H 0.0 **** 0.06
1960 H 143.16652428897888 136.15088384764238 194.29734277291288 H 0.0 **** 0.06
1961 C 13.017785929160567 46.1782868833175 168.11134266463586 C 0.0 **** -0.24
1962 H 13.436381527938096 46.26971865819243 167.1088764415883 H 0.0 **** 0.06
1963 H 13.726095033719702 46.57732748321135 168.83860698941078 H 0.0 **** 0.06
1964 H 12.825736984106157 45.12784630740933 168.32965062811488 H 0.0 **** 0.06
1965 H 12.083923213814359 46.73827939531495 168.1672299742834 H 0.0 **** 0.06
1966 C 65.6134024499519 149.855426151979 11.466414182522684 C 0.0 **** -0.24
1967 H 64.90039749922866 150.6566072767496 11.662014077046422 H 0.0 **** 0.06
1968 H 66.21390576275891 149.67703780760732 12.358103553011247 H 0.0 **** 0.06
1969 H 66.26446833452914 150.14260857256568 10.640290071087051 H 0.0 **** 0.06
1970 H 65.07382278203883 148.9450962417729 11.203562867625195 H 0.0 **** 0.06
1971 C 189.99728319840005 8.025462590919787 183.20958073906505 C 0.0 **** -0.24
1972 H 189.35955928263394 7.362285076548929 182.62520041794298 H 0.0 **** 0.06
1973 H 189.44375580580976 8.928613540406815 183.46499677114713 H 0.0 **** 0.06
1974 H 190.8779393525444 8.290526937321943 182.62427808033038 H 0.0 **** 0.06
1975 H 190.30760770368877 7.517518539228007 184.12315455591636 H 0.0 **** 0.06
1976 C 209.56613830791963 178.37679370149442 172.10139536352617 C 0.0 **** -0.24
1977 H 208.70133396672725 178.25228740371705 171.45027003379386 H 0.0 **** 0.06
1978 H 210.40269512181933 177.79778836223235 171.70991728561117 H 0.0 **** 0.06
1979 H 209.31901369989993 178.02522275365294 173.10414253304336 H 0.0 **** 0.06
1980 H 209.84017656711052 179.4307694672185 172.14348673112616 H 0.0 **** 0.06
1981 C 99.77924924593464 181.55790558372308 60.20752502561547 C 0.0 **** -0.24
1982 H 99.31855850028896 181.22850694365547 61.138445610063314 H 0.0 **** 0.06
1983 H 99.30270342978628 181.05052362291138 59.36736955052959 H 0.0 **** 0.06
1984 H 100.8413764522821 181.31677118711167 60.22254346812966 H 0.0 **** 0.06
1985 H 99.6522338409988 182.63563467368323 60.10106999745881 H 0.0 **** 0.06
1986 C 163.59886065350713 114.68204194728449 160.13448357444926 C 0.0 **** -0.24
1987 H 163.46097820821157 115.54938670659698 159.4893277303326 H 0.0 **** 0.06
1988 H 163.11347667732576 114.86190848462883 161.09388755422748 H 0.0 **** 0.06
1989 H 164.664826904224 114.51403445618311 160.29278082204172 H 0.0 **** 0.06
1990 H 163.15887038407806 113.80362167855145 159.6621489839363 H 0.0 **** 0.06
1991 C 53.09248684078456 41.89985264461532 245.7413360628595 C 0.0 **** -0.24
1992 H 52.51333862635566 41.126607781480146 245.23750644157957 H 0.0 **** 0.06
1993 H 54.15609675240455 41.7239616325767 245.57443221057386 H 0.0 **** 0.06
1994 H 52.88276639692154 41.87188005316361 246.81058787522048 H 0.0 **** 0.06
1995 H 52.81891325798459 42.876652624029674 245.34208192473432 H 0.0 **** 0.06
1996 C 67.19681450116431 151.75085923242978 70.2428291191801 C 0.0 **** -0.24
1997 H 67.9850763281456 151.9134121372491 70.97757357115404 H 0.0 **** 0.06
1998 H 67.55550842999503 151.06881579107048 69.47156717646024 H 0.0 **** 0.06
1999 H 66.92232991044082 152.70265307870545 69.78754431058627 H 0.0 **** 0.06
2000 H 66.32600490751557 151.318351799008 70.73418696032886 H 0.0 **** 0.06
2001 C 28.636065349451044 116.62081959820509 92.76336711338988 C 0.0 **** -0.24
2002 H 29.047628024535186 117.53443450578024 93.19127893286733 H 0.0 **** 0.06
2003 H 28.379770291488995 115.92756526675245 93.56494608716747 H 0.0 **** 0.06
2004 H 29.375898015435624 116.16091151489908 92.10751822904334 H 0.0 **** 0.06
2005 H 27.740682524485067 116.85942017235192 92.18957191501823 H 0.0 **** 0.06
2006 C 243.26900089098723 231.88623031312142 76.34271911953877 C 0.0 **** -0.24
2007 H 243.13780501357206 232.93504420207034 76.07403780290724 H 0.0 **** 0.06
2008 H 244.29897753630678 231.71839969403374 76.65947387422838 H 0.0 **** 0.06
2009 H 243.04826560598906 231.2602511717808 75.47850120070757 H 0.0 **** 0.06
2010 H 242.591950092082 231.6330842653698 77.15811648032042 H 0.0 **** 0.06
2011 C 21.930994891222355 41.90580493916899 102.77695166356528 C 0.0 **** -0.24
2012 H 21.807271563249827 40.82326595045981 102.78323152586987 H 0.0 **** 0.06
2013 H 21.038428991635016 42.37066522502214 102.3577242757978 H 0.0 **** 0.06
2014 H 22.798118264201293 42.16818328566849 102.17030330178468 H 0.0 **** 0.06
2015 H 22.08110173006807 42.25969924365742 103.79691849011661 H 0.0 **** 0.06
2016 C 170.14796861596952 243.3299099000222 37.689773861269714 C 0.0 **** -0.24
2017 H 170.34582409918912 242.39827576289485 37.16082433682095 H 0.0 **** 0.06
2018 H 170.95009339117453 243.52101385484474 38.40298119245017 H 0.0 **** 0.06
2019 H 169.2000757714094 243.2509367312311 38.22159616029053 H 0.0 **** 0.06
2020 H 170.09534921948554 244.15011942810918 36.973226510092104 H 0.0 **** 0.06
2021 C 240.2345075711849 123.19888662658127 193.25997319970074 C 0.0 **** -0.24
2022 H 239.81683515394053 123.87179962212676 194.00983214340476 H 0.0 **** 0.06
2023 H 241.29568591248488 123.05072403827751 193.45633493196698 H 0.0 **** 0.06
2024 H 240.10482522234062 123.6345554290117 192.26924581406212 H 0.0 **** 0.06
2025 H 239.71769601298845 122.23982888905613 193.3059693649278 H 0.0 **** 0.06
2026 C 243.82864538646612 207.8424291559728 36.87838505293922 C 0.0 **** -0.24
2027 H 243.57197581501225 206.93386307317155 37.42322812624025 H 0.0 **** 0.06
2028 H 243.8398785859784 208.68792065872793 37.56676540588745 H 0.0 **** 0.06
2029 H 243.08871096504592 208.0184482572916 36.09731149590911 H 0.0 **** 0.06
2030 H 244.81392203932586 207.72775743545532 36.42632434395156 H 0.0 **** 0.06
2031 C 149.7783280744528 134.8306521495694 239.38865025640916 C 0.0 **** -0.24
2032 H 150.66277621886294 134.36266031070633 239.8214523963469 H 0.0 **** 0.06
2033 H 149.804272693378 134.72034906227174 238.3034881960385 H 0.0 **** 0.06
2034 H 149.7648314601498 135.8897571821755 239.64647178934962 H 0.0 **** 0.06
2035 H 148.88362391046903 134.34922360267723 239.78123599938806 H 0.0 **** 0.06
2036 C 62.121233648536986 164.57427497531592 58.27348366855517 C 0.0 **** -0.24
2037 H 61.31432658289606 164.8593253278392 58.949292711424704 H 0.0 **** 0.06
2038 H 62.563832813686815 165.47114798259787 57.83860280041819 H 0.0 **** 0.06
2039 H 61.722793036380466 163.94366174457653 57.47843234627419 H 0.0 **** 0.06
2040 H 62.882182735677134 164.02427119696083 58.82657940475008 H 0.0 **** 0.06
2041 C 123.1521442660455 78.83099389177181 46.72175694659158 C 0.0 **** -0.24
2042 H 122.30088054022977 78.15165843460835 46.763469926601346 H 0.0 **** 0.06
2043 H 123.15185369600812 79.46865404733538 47.60634838927248 H 0.0 **** 0.06
2044 H 123.08001054673795 79.44969908673642 45.827303942369824 H 0.0 **** 0.06
2045 H 124.07596110544372 78.2532011382076 46.690539135548065 H 0.0 **** 0.06
2046 C 92.61277382565251 195.58621928567547 241.24807793706643 C 0.0 **** -0.24
2047 H 91.60749037797817 195.69369602552914 240.84127146618857 H 0.0 **** 0.06
2048 H 93.07154904245968 196.57077418775944 241.3498892065407 H 0.0 **** 0.06
2049 H 93.21322567103232 194.9731058169123 240.57598715050503 H 0.0 **** 0.06
2050 H 92.55923335341473 195.1072251978003 242.22651734024467 H 0.0 **** 0.06
2051 C 225.8483223221125 176.82336843173903 1.4022507927120955 C 0.0 **** -0.24
2052 H 225.8517422603955 177.70426610636696 0.76080231189502 H 0.0 **** 0.06
2053 H 226.10326685435146 175.94246970039308 0.8129815157529094 H 0.0 **** 0.06
2054 H 224.85771870322873 176.69539773848084 1.8381688320515508 H 0.0 **** 0.06
2055 H 226.5810831185995 176.95192949559043 2.1993701341387606 H 0.0 **** 0.06
2056 C 200.41270881226703 124.02863770067242 214.586001609389 C 0.0 **** -0.24
2057 H 200.15603372018182 123.1120062931802 215.11653466554867 H 0.0 **** 0.06
2058 H 199.62345405965237 124.26959458434669 213.87473915936744 H 0.0 **** 0.06
2059 H 201.35365176791703 123.88861401854831 214.052833434354 H 0.0 **** 0.06
2060 H 200.51903390281376 124.84490961630951 215.3015962706898 H 0.0 **** 0.06
2061 C 200.2434600374688 19.836016985394565 244.2126031781556 C 0.0 **** -0.24
2062 H 200.66653206383128 20.41352212700069 245.03435766574032 H 0.0 **** 0.06
2063 H 200.7852958735461 20.06147829398489 243.2933851917295 H 0.0 **** 0.06
2064 H 199.19188055660834 20.09775488667121 244.08790172348665 H 0.0 **** 0.06
2065 H 200.32840922692515 18.77250703550567 244.43398922730302 H 0.0 **** 0.06
2066 C 6.998646288484139 143.75839339107878 69.96142488887355 C 0.0 **** -0.24
2067 H 6.7405903242635645 144.54581674530954 70.66987189021881 H 0.0 **** 0.06
2068 H 6.158425920830055 143.58391751838383 69.29067273246392 H 0.0 **** 0.06
2069 H 7.22774723757702 142.84203762201045 70.50474562449872 H 0.0 **** 0.06
2070 H 7.869636138885767 144.0643014867255 69.38108662952428 H 0.0 **** 0.06
2071 C 157.97934306581905 197.7224702317422 69.07683610360891 C 0.0 **** -0.24
2072 H 158.6116914479496 198.46154996071704 68.58484703115388 H 0.0 **** 0.06
2073 H 158.41247823623192 197.45893136389208 70.04197327659551 H 0.0 **** 0.06
2074 H 157.90993131586316 196.83093584652573 68.45277438570298 H 0.0 **** 0.06
2075 H 156.98282867863327 198.13826447707504 69.22687541177757 H 0.0 **** 0.06
2076 C 91.93488822761239 38.8724361630438 76.27413772469444 C 0.0 **** -0.24
2077 H 92.14912013382806 39.632662697982184 77.02546247284874 H 0.0 **** 0.06
2078 H 92.35793620499132 37.91915933004404 76.59125640782608 H 0.0 **** 0.06
2079 H 92.37688872114282 39.16794954650295 75.3226163256688 H 0.0 **** 0.06
2080 H 90.85599377796225 38.77085098048427 76.15825509902712 H 0.0 **** 0.06
2081 C 24.509558858325562 216.9616532271365 225.68273410444783 C 0.0 **** -0.24
2082 H 24.325200443724356 216.49138275325524 224.71642709676456 H 0.0 **** 0.06
2083 H 23.83781967324478 217.8103392742656 225.8085912547365 H 0.0 **** 0.06
2084 H 25.542969906462673 217.30580338743545 225.72704938550717 H 0.0 **** 0.06
2085 H 24.33377974677731 216.2367069898228 226.47746187253495 H 0.0 **** 0.06
2086 C 222.23749884667473 203.75858445805483 104.01622670895418 C 0.0 **** -0.24
2087 H 221.5426986178996 204.1076463885908 103.25281464928045 H 0.0 **** 0.06
2088 H 223.25214142971242 203.77148961891908 103.61868998026296 H 0.0 **** 0.06
2089 H 221.97493486408888 202.74121972659896 104.30866258363088 H 0.0 **** 0.06
2090 H 222.17910168452607 204.4127289070512 104.88652228314683 H 0.0 **** 0.06
2091 C 26.734344507878376 245.65717043450982 166.9421666367224 C 0.0 **** -0.24
2092 H 25.91026118370044 245.507156810896 166.24466096873255 H 0.0 **** 0.06
2093 H 27.675841496579636 245.6739823887077 166.39261104041168 H 0.0 **** 0.06
2094 H 26.749691395462293 244.84152974349695 167.66577931984222 H 0.0 **** 0.06
2095 H 26.599926214817827 246.6044058858319 167.46479680695518 H 0.0 **** 0.06
2096 C 17.444300294632498 219.87105103047475 70.71254029890443 C 0.0 **** -0.24
2097 H 16.358912999753827 219.87317521649845 70.61339154683873 H 0.0 **** 0.06
2098 H 17.724856934285455 220.36324250817518 71.64390601291771 H 0.0 **** 0.06
2099 H 17.88683724043578 220.40394613191847 69.87167085625501 H 0.0 **** 0.06
2100 H 17.805300113784767 218.8420895417779 70.72170352786179 H 0.0 **** 0.06
2101 C 108.44160876942024 221.69830046999652 202.24276585765696 C 0.0 **** -0.24
2102 H 108.83771953660587 221.92125110634234 203.23313893714158 H 0.0 **** 0.06
2103 H 107.97073430629581 220.7152134929732 202.25295440170785 H 0.0 **** 0.06
2104 H 109.25526886369343 221.70464712738828 201.51638265597362 H 0.0 **** 0.06
2105 H 107.70400534583979 222.45262051320785 201.9688041247759 H 0.0 **** 0.06
2106 C 208.4599572729042 187.4636117262384 209.93029730420335 C 0.0 **** -0.24
2107 H 208.60196621922293 188.45759789139197 209.5078928569294 H 0.0 **** 0.06
2108 H 207.57727428823807 187.0021680809566 209.48724416706597 H 0.0 **** 0.06
2109 H 208.32423593003452 187.54340833012157 211.00921333217156 H 0.0 **** 0.06
2110 H 209.3356492633411 186.85016914428354 209.71953843636297 H 0.0 **** 0.06
2111 C 180.33269305518502 12.477086961613594 188.05846483853276 C 0.0 **** -0.24
2112 H 179.67489491163352 11.959668942876561 188.75684064404726 H 0.0 **** 0.06
2113 H 180.995151293621 11.754096235724063 187.58148887361943 H 0.0 **** 0.06
2114 H 180.926523978676 13.214809737059142 188.59748849596204 H 0.0 **** 0.06
2115 H 179.7331060478342 12.977212483712947 187.29853428756695 H 0.0 **** 0.06
2116 C 37.02151438851601 212.2339527707768 44.71222182981734 C 0.0 **** -0.24
2117 H 37.925381699203996 212.1552790391818 45.31646093755214 H 0.0 **** 0.06
2118 H 37.27871745560705 212.1188508576966 43.658766699625346 H 0.0 **** 0.06
2119 H 36.56322767571581 213.2097161171202 44.869650348156 H 0.0 **** 0.06
2120 H 36.321156011852594 211.45179599699154 45.0025638343314 H 0.0 **** 0.06
2121 C 1.8170663079611984 97.45278347528728 82.33211274749985 C 0.0 **** -0.24
2122 H 1.674169825757616 96.74890122982927 83.15275637348216 H 0.0 **** 0.06
2123 H 0.9330678834774346 97.45076929445128 81.6944268549008 H 0.0 **** 0.06
2124 H 2.688343870405646 97.15690689147647 81.74816667029492 H 0.0 **** 0.06
2125 H 1.9722900396804732 98.4530026291412 82.73563697136021 H 0.0 **** 0.06
2126 C 222.19213643754108 137.69480992951407 81.56453072337936 C 0.0 **** -0.24
2127 H 223.22721177886126 137.4494913031882 81.80231923961028 H 0.0 **** 0.06
2128 H 221.77480755715737 138.31692409819556 82.3568236892153 H 0.0 **** 0.06
2129 H 221.61063755835715 136.7769373342791 81.4792282053671 H 0.0 **** 0.06
2130 H 222.1553417043859 138.2374624325105 80.61928420025498 H 0.0 **** 0.06
2131 C 38.06962356240135 120.60071166751965 195.20887019445286 C 0.0 **** -0.24
2132 H 37.82271097144732 120.2304750723365 196.204050383265 H 0.0 **** 0.06
2133 H 37.733281320183295 119.88283866395591 194.46080280737124 H 0.0 **** 0.06
2134 H 39.148529898985345 120.7326253988829 195.1277502054768 H 0.0 **** 0.06
2135 H 37.573136578226325 121.55770217213345 195.04369624862403 H 0.0 **** 0.06
2136 C 75.92527619717762 163.83986539584308 196.48188503972307 C 0.0 **** -0.24
2137 H 75.99934052040481 162.92329857600643 195.8958506390662 H 0.0 **** 0.06
2138 H 76.37857725423328 164.6628645881234 195.9285686215096 H 0.0 **** 0.06
2139 H 76.44531211232868 163.70754834139592 197.43049212918027 H 0.0 **** 0.06
2140 H 74.875282125512 164.06484726766624 196.6719486786344 H 0.0 **** 0.06
2141 C 89.40361318643164 101.08999752354597 172.64902874899371 C 0.0 **** -0.24
2142 H 88.49476515713755 101.1905647985154 173.24322742157835 H 0.0 **** 0.06
2143 H 89.21951294883681 100.40888436481006 171.8180284245848 H 0.0 **** 0.06
2144 H 90.20380483540782 100.69262989915373 173.27375738516653 H 0.0 **** 0.06
2145 H 89.69446830947916 102.06635472500338 172.262502587485 H 0.0 **** 0.06
2146 C 24.603308917946634 127.6428483921365 136.38020345980118 C 0.0 **** -0.24
2147 H 25.34401323931715 128.1423655872644 137.00495401221477 H 0.0 **** 0.06
2148 H 25.00534253026902 126.6930499523703 136.02843867839712 H 0.0 **** 0.06
2149 H 24.364021187878592 128.27524247370965 135.52565581902292 H 0.0 **** 0.06
2150 H 23.699652691471755 127.4623728271851 136.96229156549597 H 0.0 **** 0.06
2151 C 32.768070279711566 164.0942868055216 186.8896680279547 C 0.0 **** -0.24
2152 H 33.75276771178321 163.65103315800798 186.7405380758056 H 0.0 **** 0.06
2153 H 32.117791560696475 163.82203198977447 186.05793040197145 H 0.0 **** 0.06
2154 H 32.862456149493454 165.1790633382078 186.93795622096667 H 0.0 **** 0.06
2155 H 32.34204422586939 163.72448982924712 187.82223682712407 H 0.0 **** 0.06
2156 C 68.13743098342235 70.12102160941973 224.19604566675235 C 0.0 **** -0.24
2157 H 67.19410325085036 69.74089234321809 224.587013811762 H 0.0 **** 0.06
2158 H 68.00628784506034 70.41769536417362 223.1552999090789 H 0.0 **** 0.06
2159 H 68.89613553292509 69.34185956531073 224.25924749568065 H 0.0 **** 0.06
2160 H 68.45319730485349 70.98363916497641 224.78262145048774 H 0.0 **** 0.06
2161 C 44.42151367214937 19.985412391603376 117.46009346262255 C 0.0 **** -0.24
2162 H 44.73200825493633 20.99813314926311 117.7168547301504 H 0.0 **** 0.06
2163 H 45.290303054642436 19.410160268749365 117.1385945007132 H 0.0 **** 0.06
2164 H 43.69186537393878 20.023757265095156 116.65216921740907 H 0.0 **** 0.06
2165 H 43.97427403920665 19.5101045254265 118.33281375404246 H 0.0 **** 0.06
2166 C 232.2555248538712 149.89531975198528 183.16857279298998 C 0.0 **** -0.24
2167 H 231.52908719421674 149.17572579757496 182.79229838940137 H 0.0 **** 0.06
2168 H 231.75015848009738 150.62643524620302 183.7994733636382 H 0.0 **** 0.06
2169 H 232.72967959183052 150.4056375268632 182.3294734936431 H 0.0 **** 0.06
2170 H 233.0152668024604 149.3743188700338 183.75208785852885 H 0.0 **** 0.06
2171 C 96.73700231726988 31.33554565430326 35.944253503527094 C 0.0 **** -0.24
2172 H 96.6333922430077 32.046953215122684 35.12518769414518 H 0.0 **** 0.06
2173 H 96.88269514989994 31.87744653523876 36.87956661596998 H 0.0 **** 0.06
2174 H 97.59775536055062 30.692133183851965 35.75936929732285 H 0.0 **** 0.06
2175 H 95.83537723003334 30.72634660804742 36.013110601050414 H 0.0 **** 0.06
2176 C 120.33527254210031 7.916770297725023 93.62160140053876 C 0.0 **** -0.24
2177 H 119.85822025994597 8.883004423404643 93.45635519839195 H 0.0 **** 0.06
2178 H 121.37513718979505 7.964871854621322 93.29906098526212 H 0.0 **** 0.06
2179 H 119.81144539849964 7.151700497005308 93.04878477176086 H 0.0 **** 0.06
2180 H 120.2941152685301 7.668600967247855 94.68248718030165 H 0.0 **** 0.06
2181 C 189.27296035036755 97.79385353299239 20.757326989846376 C 0.0 **** -0.24
2182 H 188.81201242303482 97.06578549178198 20.089277955759712 H 0.0 **** 0.06
2183 H 188.5461776047787 98.11233539571819 21.504820612352304 H 0.0 **** 0.06
2184 H 189.6047679501252 98.65697827904523 20.1806017913719 H 0.0 **** 0.06
2185 H 190.1293609120794 97.33876019320516 21.25520318133691 H 0.0 **** 0.06
2186 C 171.83401281533625 220.75313006959328 201.01614552387485 C 0.0 **** -0.24
2187 H 171.4889721375553 220.87499976375793 199.9889370315414 H 0.0 **** 0.06
2188 H 172.9237064423987 220.73221178266752 201.03357521567457 H 0.0 **** 0.06
2189 H 171.44552882096139 219.8174168095004 201.4205790400109 H 0.0 **** 0.06
2190 H 171.47622258931116 221.58649933107057 201.62083337545818 H 0.0 **** 0.06
2191 C 87.12245355044848 204.30505415104466 47.94279016217169 C 0.0 **** -0.24
2192 H 86.29066109497944 204.70849127274806 48.52066676973968 H 0.0 **** 0.06
2193 H 87.76240213280141 205.12262644056653 47.608565765075895 H 0.0 **** 0.06
2194 H 86.7359971196392 203.76925471179203 47.07606358903766 H 0.0 **** 0.06
2195 H 87.70012762707537 203.62177260360022 48.56492162139327 H 0.0 **** 0.06
2196 C 85.98593614884504 111.44403927943173 240.2974262574977 C 0.0 **** -0.24
2197 H 86.98749831359208 111.03994455687277 240.15034378432625 H 0.0 **** 0.06
2198 H 85.24677047127949 110.6973946475762 240.00339142063734 H 0.0 **** 0.06
2199 H 85.86124192893197 112.33787069357251 239.68612492071614 H 0.0 **** 0.06
2200 H 85.84775042674573 111.69887577895449 241.34772936837885 H 0.0 **** 0.06
2201 C 35.87409502394614 13.420511140605157 118.28194126008242 C 0.0 **** -0.24
2202 H 35.99861803814969 12.338119170845829 118.2814920200988 H 0.0 **** 0.06
2203 H 34.83022683482497 13.665095448563392 118.48036579590769 H 0.0 **** 0.06
2204 H 36.16193463507152 13.820102360865945 117.30960192491887 H 0.0 **** 0.06
2205 H 36.50339923280586 13.859520471718639 119.0555804401001 H 0.0 **** 0.06
2206 C 129.87603818187844 15.4084087600407 128.82419724967468 C 0.0 **** -0.24
2207 H 128.87256352262827 15.6454574372801 128.471207025254 H 0.0 **** 0.06
2208 H 130.37691160076332 14.77118266304457 128.09445599294685 H 0.0 **** 0.06
2209 H 129.81110605940114 14.886108976587153 129.77874809980688 H 0.0 **** 0.06
2210 H 130.443469016642 16.329548140915875 128.95282480223642 H 0.0 **** 0.06
2211 C 19.199346684963416 181.5527551795164 109.27994716058947 C 0.0 **** -0.24
2212 H 18.806233702813344 180.5473563681541 109.13258375781209 H 0.0 **** 0.06
2213 H 19.840885639747214 181.56556181419182 110.16239679175811 H 0.0 **** 0.06
2214 H 18.372050526482056 182.2493178818679 109.4221901004465 H 0.0 **** 0.06
2215 H 19.777827759406847 181.84916597917754 108.40478668595699 H 0.0 **** 0.06
2216 C 162.984070328069 141.58870883387547 122.22568189896714 C 0.0 **** -0.24
2217 H 163.62458065989674 141.17788403118664 121.44576391765037 H 0.0 **** 0.06
2218 H 162.74242791277968 142.62525669490913 121.98777843785851 H 0.0 **** 0.06
2219 H 163.5038562089473 141.54581970689168 123.18241839490756 H 0.0 **** 0.06
2220 H 162.0651893531991 141.0059951181285 122.28505396255372 H 0.0 **** 0.06
2221 C 113.26644940031488 191.93497734575203 119.49263537189984 C 0.0 **** -0.24
2222 H 114.07719479214146 192.63002135503604 119.70894139328098 H 0.0 **** 0.06
2223 H 112.42129727486406 192.14788029647048 120.14763063340712 H 0.0 **** 0.06
2224 H 113.6079724962812 190.9135631700139 119.66001704356279 H 0.0 **** 0.06
2225 H 112.95818871173904 192.04910275775578 118.45344515546526 H 0.0 **** 0.06
2226 C 106.62993366972665 96.03338581991693 82.0562431144703 C 0.0 **** -0.24
2227 H 106.79162687092784 97.11091940794142 82.07087998376625 H 0.0 **** 0.06
2228 H 105.84348316686373 95.79402809168775 81.33982210499519 H 0.0 **** 0.06
2229 H 106.33255942589315 95.6966419627924 83.04903397694108 H 0.0 **** 0.06
2230 H 107.55261121103817 95.53251155811324 81.76405705627712 H 0.0 **** 0.06
2231 C 15.83321517165595 158.4150600008722 51.301377912468354 C 0.0 **** -0.24
2232 H 16.301059256695424 158.52466966988555 50.32267969144323 H 0.0 **** 0.06
2233 H 15.46502431776625 159.3842670273617 51.6378579332532 H 0.0 **** 0.06
2234 H 16.56635244409958 158.03709832665672 52.013844248642 H 0.0 **** 0.06
2235 H 15.001887967428814 157.71491850110053 51.229596906449444 H 0.0 **** 0.06
2236 C 24.868080136377515 63.14420431803765 155.2528383037618 C 0.0 **** -0.24
2237 H 25.291826901101743 63.83069902555346 155.9857723146194 H 0.0 **** 0.06
2238 H 25.138529643654152 62.12115395604272 155.51431027220062 H 0.0 **** 0.06
2239 H 25.259996975089607 63.3823030520218 154.26373580227934 H 0.0 **** 0.06
2240 H 23.782405652426874 63.24399838250045 155.2473945688717 H 0.0 **** 0.06
2241 C 201.5755005450481 51.746722364739384 212.43748521934043 C 0.0 **** -0.24
2242 H 201.9971486121044 51.13480825218704 213.234452338141 H 0.0 **** 0.06
2243 H 202.0450256300069 51.48323106854831 211.48994519554657 H 0.0 **** 0.06
2244 H 201.75831976106952 52.80017162762101 212.65352079708651 H 0.0 **** 0.06
2245 H 200.50195993858944 51.571026894077974 212.3725527021756 H 0.0 **** 0.06
2246 C 224.88326691386618 156.47622026882283 213.29614173560822 C 0.0 **** -0.24
2247 H 225.12819538867487 156.0941675216963 212.3049074981243 H 0.0 **** 0.06
2248 H 225.68445332705892 156.2214607645145 213.99079165275248 H 0.0 **** 0.06
2249 H 223.95013796765835 156.03018729721688 213.63755864923695 H 0.0 **** 0.06
2250 H 224.7725518514497 157.56029668673432 213.24978357564316 H 0.0 **** 0.06
2251 C 22.284514775475003 185.46184665053693 57.55623186996118 C 0.0 **** -0.24
2252 H 21.423546505051576 184.8483844690208 57.819357972636084 H 0.0 **** 0.06
2253 H 23.100952235014034 185.2575619047356 58.24919593124653 H 0.0 **** 0.06
2254 H 22.012088105708102 186.51516687135762 57.614821814643506 H 0.0 **** 0.06
2255 H 22.602715693799638 185.22424072187653 56.54098403295362 H 0.0 **** 0.06
2256 C 8.874598362310934 10.784727577381261 235.21236596092587 C 0.0 **** -0.24
2257 H 8.75264817263573 10.990746984604172 234.14826928350797 H 0.0 **** 0.06
2258 H 9.83153508205865 11.181412546212016 235.55096116963807 H 0.0 **** 0.06
2259 H 8.847272138221314 9.70819138608526 235.3790143002288 H 0.0 **** 0.06
2260 H 8.066575439370155 11.25940377422485 235.76836328636296 H 0.0 **** 0.06
2261 C 43.00581869497867 123.06146661595514 125.31954817251457 C 0.0 **** -0.24
2262 H 42.22639919617933 123.29298072251069 124.59409174695872 H 0.0 **** 0.06
2263 H 43.899442019937595 122.72117156515858 124.7966598504396 H 0.0 **** 0.06
2264 H 42.65590025437169 122.27671793191078 125.99033514174874 H 0.0 **** 0.06
2265 H 43.24083297021727 123.95503591794238 125.89781866454729 H 0.0 **** 0.06
2266 C 69.96876052424113 239.23588866252564 101.46362397112276 C 0.0 **** -0.24
2267 H 69.3186620442213 239.056535262483 102.319519926207 H 0.0 **** 0.06
2268 H 70.78005626712502 239.90172089062293 101.75741850508476 H 0.0 **** 0.06
2269 H 69.39290994883274 239.69668913025316 100.66126207700842 H 0.0 **** 0.06
2270 H 70.3830782124108 238.289441451284 101.11585378663676 H 0.0 **** 0.06
2271 C 45.803384583937856 172.58699090701327 159.06267656847902 C 0.0 **** -0.24
2272 H 44.93678218184621 171.94452076410266 159.21973058604655 H 0.0 **** 0.06
2273 H 45.70741528701686 173.48151260257288 159.67982356894294 H 0.0 **** 0.06
2274 H 45.857525541898184 172.8736066818145 158.01278242328846 H 0.0 **** 0.06
2275 H 46.70952073200678 172.04895023039668 159.34019787489925 H 0.0 **** 0.06
2276 C 164.39600395466792 73.36445727021194 192.49285739986414 C 0.0 **** -0.24
2277 H 164.8758918634504 72.74594214105431 193.25139362201014 H 0.0 **** 0.06
2278 H 163.94531796475516 72.72436068127607 191.73384747073712 H 0.0 **** 0.06
2279 H 165.14018844464553 74.01166526250296 192.0279500588761 H 0.0 **** 0.06
2280 H 163.62350582796844 73.9762654474863 192.9580207701586 H 0.0 **** 0.06
2281 C 135.92920682659562 71.40610226146615 57.277823207594736 C 0.0 **** -0.24
2282 H 136.4261004116396 72.34177513906053 57.023646911451294 H 0.0 **** 0.06
2283 H 136.47059999333777 70.9156200995391 58.08646976319534 H 0.0 **** 0.06
2284 H 135.91316774637357 70.75418141449151 56.404092967937174 H 0.0 **** 0.06
2285 H 134.9074192719539 71.61150883907266 57.59606508798109 H 0.0 **** 0.06
2286 C 110.74125462140395 237.47171838301557 64.28312178993187 C 0.0 **** -0.24
2287 H 110.03066412389288 237.04636459258495 64.99164621761071 H 0.0 **** 0.06
2288 H 111.43503583669676 236.69633408666527 63.95554217447591 H 0.0 **** 0.06
2289 H 111.29666157449276 238.27642429983536 64.76416343718941 H 0.0 **** 0.06
2290 H 110.20304561723583 237.86533302767077 63.421202917539716 H 0.0 **** 0.06
2291 C 220.9041059201931 217.9355997481478 195.77808808319352 C 0.0 **** -0.24
2292 H 219.98149328416628 217.82586755874473 196.34927049990316 H 0.0 **** 0.06
2293 H 220.67124555908845 217.94328508556038 194.7126536319815 H 0.0 **** 0.06
2294 H 221.56841120252912 217.10045480675018 195.99895678266623 H 0.0 **** 0.06
2295 H 221.3920717357715 218.87085734593285 196.05138856233953 H 0.0 **** 0.06
2296 C 136.9579987343091 93.95174966977078 75.07295488669374 C 0.0 **** -0.24
2297 H 137.5071395083967 93.99904738695437 74.13209947060079 H 0.0 **** 0.06
2298 H 136.5986840423134 94.94641690591777 75.33460082890142 H 0.0 **** 0.06
2299 H 137.61803065952165 93.5851419887264 75.85958646631761 H 0.0 **** 0.06
2300 H 136.11007471864949 93.27524977148965 74.96455597975839 H 0.0 **** 0.06
2301 C 1.6436082941767438 128.72085787904558 88.98190665962042 C 0.0 **** -0.24
2302 H 2.607254445733247 129.22770148365646 89.03679953848601 H 0.0 **** 0.06
2303 H 1.334933419959583 128.41984759738756 89.98368768088326 H 0.0 **** 0.06
2304 H 1.7320853700207977 127.8387204246356 88.34754880275133 H 0.0 **** 0.06
2305 H 0.8999942332963826 129.39864419562076 88.5612566646565 H 0.0 **** 0.06
2306 C 162.52307996395072 210.91860186037738 52.62044321881277 C 0.0 **** -0.24
2307 H 162.1472570400017 210.12008581720175 53.25971297577573 H 0.0 **** 0.06
2308 H 163.2553790961013 210.51257034479107 51.923326335750886 H 0.0 **** 0.06
2309 H 162.99244083757654 211.68507772663892 53.23655090315256 H 0.0 **** 0.06
2310 H 161.69429161876553 211.3574248500141 52.063496321227575 H 0.0 **** 0.06
2311 C 74.30167330868434 147.82462567415945 160.60752442295063 C 0.0 **** -0.24
2312 H 73.52328198103245 147.80784180138414 161.3707248009845 H 0.0 **** 0.06
2313 H 74.62145520747822 146.80457560873543 160.39259425147273 H 0.0 **** 0.06
2314 H 75.15080851364124 148.40460527676393 160.9677377266285 H 0.0 **** 0.06
2315 H 73.9082034424265 148.2810353428922 159.6986739084179 H 0.0 **** 0.06
2316 C 30.956041689856207 209.11847795649544 120.86636541759569 C 0.0 **** -0.24
2317 H 30.044939799475813 209.01170370924515 120.27871827670634 H 0.0 **** 0.06
2318 H 30.802539575361607 208.68755949910837 121.85557113424753 H 0.0 **** 0.06
2319 H 31.203986757704598 210.17546455793263 120.96453434865174 H 0.0 **** 0.06
2320 H 31.773290446712465 208.59801722203264 120.36609881717496 H 0.0 **** 0.06
2321 C 53.617401790455034 26.593682313998002 159.36519185282773 C 0.0 **** -0.24
2322 H 52.75098976148183 26.147624071965993 159.85184449476915 H 0.0 **** 0.06
2323 H 53.2937770152173 27.424402627931045 158.73690262939783 H 0.0 **** 0.06
2324 H 54.113967827259216 25.84382354633948 158.74901365377588 H 0.0 **** 0.06
2325 H 54.311507290094056 26.959194754582484 160.12230134623866 H 0.0 **** 0.06
2326 C 206.32407051200317 84.82064991289093 217.29409670625563 C 0.0 **** -0.24
2327 H 207.38660042516318 84.69998121896205 217.08281769723723 H 0.0 **** 0.06
2328 H 206.0584679914208 85.8755722867115 217.23085393165152 H 0.0 **** 0.06
2329 H 206.1094593304136 84.45064786954845 218.2968310185015 H 0.0 **** 0.06
2330 H 205.74245638225142 84.25431499651913 216.56629292670664 H 0.0 **** 0.06
2331 C 79.58054606940112 190.8980886734257 167.18718249533944 C 0.0 **** -0.24
2332 H 79.19937086373983 189.88349615168266 167.3031913179918 H 0.0 **** 0.06
2333 H 78.8598696849977 191.60539798818155 167.5984350430107 H 0.0 **** 0.06
2334 H 79.73582864879899 191.1103387922777 166.12981795664996 H 0.0 **** 0.06
2335 H 80.52710056176036 190.9924126434886 167.71940627434037 H 0.0 **** 0.06
2336 C 170.26196725392103 61.58535705949183 21.21294218275233 C 0.0 **** -0.24
2337 H 169.97629119980732 62.45712653573244 20.62447915137075 H 0.0 **** 0.06
2338 H 169.3705235807765 61.12956934706341 21.642909972147763 H 0.0 **** 0.06
2339 H 170.93585703218366 61.89255746752514 22.01380238427643 H 0.0 **** 0.06
2340 H 170.76664480811112 60.86325958691438 20.57143039708248 H 0.0 **** 0.06
2341 C 174.9915527118749 175.00823620621844 68.90804625180766 C 0.0 **** -0.24
2342 H 175.86491099313946 175.52998946894837 68.51545050009082 H 0.0 **** 0.06
2343 H 175.3129150763897 174.25334754229252 69.62672623600938 H 0.0 **** 0.06
2344 H 174.45749418212324 174.52684141123572 68.08874831561533 H 0.0 **** 0.06
2345 H 174.3330845401819 175.72314345430158 69.40147087921224 H 0.0 **** 0.06
2346 C 184.13892958789694 237.76465423595766 159.23505943329107 C 0.0 **** -0.24
2347 H 184.0619690161784 236.79859043646368 158.73579159100115 H 0.0 **** 0.06
2348 H 184.58293353951095 237.62904256019885 160.22160722243146 H 0.0 **** 0.06
2349 H 183.14536714890983 238.1996745077113 159.33863840149507 H 0.0 **** 0.06
2350 H 184.76719805217084 238.4298312925137 158.6420199769051 H 0.0 **** 0.06
2351 C 125.02374528188761 148.24443738789995 227.44450282579433 C 0.0 **** -0.24
2352 H 125.75269914430356 148.65068847377185 226.74293109335656 H 0.0 **** 0.06
2353 H 125.18033312239092 147.17025052696215 227.54724723360079 H 0.0 **** 0.06
2354 H 124.01752275855631 148.43163828382256 227.07169508487755 H 0.0 **** 0.06
2355 H 125.14800561653234 148.72500367517392 228.41506141980796 H 0.0 **** 0.06
2356 C 42.54330556919521 77.50265869542301 31.20360560998286 C 0.0 **** -0.24
2357 H 42.583169260195774 78.56342461752556 30.954488928090086 H 0.0 **** 0.06
2358 H 43.26597194518834 77.28867807542451 31.99154417352274 H 0.0 **** 0.06
2359 H 42.78393159783715 76.91253888337138 30.3196427797306 H 0.0 **** 0.06
2360 H 41.54141184153711 77.24847713854032 31.54923295451458 H 0.0 **** 0.06
2361 C 162.48204931130766 98.5667138814548 166.56039828329213 C 0.0 **** -0.24
2362 H 162.88049053265442 99.09441374430799 167.42712720298445 H 0.0 **** 0.06
2363 H 162.75046368781494 99.10621934412131 165.65187412211705 H 0.0 **** 0.06
2364 H 161.39667065702247 98.50525657842482 166.63988882467535 H 0.0 **** 0.06
2365 H 162.90027558424518 97.56078897084726 166.52407435118576 H 0.0 **** 0.06
2366 C 7.604959109253599 66.29425859255875 183.25671544301554 C 0.0 **** -0.24
2367 H 6.65877274728669 66.71509184823992 182.91742161397448 H 0.0 **** 0.06
2368 H 7.768437608372977 65.33092699059256 182.77136547092675 H 0.0 **** 0.06
2369 H 7.575103544353368 66.15557308053414 184.33674485386982 H 0.0 **** 0.06
2370 H 8.417798133704451 66.97367264306104 182.99892319363806 H 0.0 **** 0.06
2371 C 240.5175335864782 18.80839492045483 34.283673684579725 C 0.0 **** -0.24
2372 H 241.28356045228819 18.488388044857757 34.99100389265814 H 0.0 **** 0.06
2373 H 240.94425091281357 19.533425658620573 33.589812508359586 H 0.0 **** 0.06
2374 H 239.69149158325206 19.266895619904318 34.82642710675637 H 0.0 **** 0.06
2375 H 240.15267745188666 17.94390546622799 33.72826432041208 H 0.0 **** 0.06
2376 C 171.17894018488673 128.9302224239494 186.96065053070186 C 0.0 **** -0.24
2377 H 171.41386358769307 128.39070877062554 187.87839100912004 H 0.0 **** 0.06
2378 H 170.35247185725663 129.61712344061883 187.1453927149413 H 0.0 **** 0.06
2379 H 170.8948380479283 128.2190216299745 186.18524162416702 H 0.0 **** 0.06
2380 H 172.05403564537986 129.49234651643175 186.63599378932463 H 0.0 **** 0.06
2381 C 130.0161717270518 203.2366826989826 72.98642948467818 C 0.0 **** -0.24
2382 H 128.93697643639297 203.0929200292469 73.02440810383467 H 0.0 **** 0.06
2383 H 130.42543369097396 202.6955329447088 72.13375478089247 H 0.0 **** 0.06
2384 H 130.46586392845853 202.85902159350331 73.90569092729717 H 0.0 **** 0.06
2385 H 130.23776873994518 204.29864146629956 72.88380929886915 H 0.0 **** 0.06
2386 C 59.22795524092632 96.7580250448969 108.83467448684496 C 0.0 **** -0.24
2387 H 60.26973285710139 96.97761553941962 109.0684585387317 H 0.0 **** 0.06
2388 H 59.07894169811951 95.67823197845269 108.81680075124021 H 0.0 **** 0.06
2389 H 58.97894488259598 97.17648850084416 107.85954795893471 H 0.0 **** 0.06
2390 H 58.58473315309166 97.20088917256851 109.59456281503498 H 0.0 **** 0.06
2391 C 112.59163789882948 17.66329454960126 51.43599219367816 C 0.0 **** -0.24
2392 H 112.63420583212715 17.00723836638602 52.30624493787397 H 0.0 **** 0.06
2393 H 112.1191125116116 18.604961950252488 51.71427950527726 H 0.0 **** 0.06
2394 H 112.01028973923636 17.1833516813916 50.64792510142293 H 0.0 **** 0.06
2395 H 113.6026770434604 17.85460596833181 51.07686358866739 H 0.0 **** 0.06
2396 C 209.22871191618992 216.23454756483085 92.9150525649531 C 0.0 **** -0.24
2397 H 209.1311619208067 215.21778008820084 92.53244378083156 H 0.0 **** 0.06
2398 H 210.02706560402828 216.74799663383433 92.3789909880607 H 0.0 **** 0.06
2399 H 209.4672901297156 216.20131081647207 93.97799627061826 H 0.0 **** 0.06
2400 H 208.2904267357474 216.76858486906298 92.76957186646769 H 0.0 **** 0.06
2401 C 85.73804425237685 60.888334141959035 155.76501784025353 C 0.0 **** -0.24
2402 H 85.30243222820397 60.3362675988933 154.9316834091659 H 0.0 **** 0.06
2403 H 85.0819567330494 60.81315575363715 156.63235742119775 H 0.0 **** 0.06
2404 H 85.85372912676277 61.935586368588616 155.48565006592338 H 0.0 **** 0.06
2405 H 86.7133263057336 60.46746002601827 156.00907205911702 H 0.0 **** 0.06
2406 C 219.6892657718625 48.09594986585478 124.405945692693 C 0.0 **** -0.24
2407 H 220.41609835094644 47.35197693146904 124.08160600504664 H 0.0 **** 0.06
2408 H 219.2889426998695 48.61696191746678 123.53607417807513 H 0.0 **** 0.06
2409 H 220.17579900783915 48.81364595306559 125.0673096745341 H 0.0 **** 0.06
2410 H 218.87805768972694 47.60206775004387 124.94017360768248 H 0.0 **** 0.06
2411 C 198.60317393648984 183.63351654760726 170.98570098688467 C 0.0 **** -0.24
2412 H 198.84315304803408 184.45222836197203 170.30738648829615 H 0.0 **** 0.06
2413 H 199.33040062659683 182.8312182317101 170.85794602628079 H 0.0 **** 0.06
2414 H 197.6040705037043 183.2589280046013 170.7625859379397 H 0.0 **** 0.06
2415 H 198.6355306334763 183.9930189837935 172.01472023936745 H 0.0 **** 0.06
2416 C 241.70733788720912 103.56723100687921 192.2108696433463 C 0.0 **** -0.24
2417 H 241.37247699890668 104.20806910554958 193.02675951920094 H 0.0 **** 0.06
2418 H 242.73280716106171 103.24726987853253 192.39779802961857 H 0.0 **** 0.06
2419 H 241.6644010605097 104.12096818776635 191.27279867811515 H 0.0 **** 0.06
2420 H 241.05950283623122 102.69330162815774 192.14683253424255 H 0.0 **** 0.06
2421 C 214.58287856953584 82.83166826371294 47.41166489478505 C 0.0 **** -0.24
2422 H 213.92934925067092 82.31817858902807 46.70578079551498 H 0.0 **** 0.06
2423 H 215.40158145942343 82.1704834222092 47.69603042445847 H 0.0 **** 0.06
2424 H 214.0129840293613 83.1063332812574 48.29958826726275 H 0.0 **** 0.06
2425 H 214.9855641150855 83.73096145448238 46.94584660914606 H 0.0 **** 0.06
2426 C 131.13391578682877 0.274343253915589 73.99081802291025 C 0.0 **** -0.24
2427 H 131.63228977010797 1.2370196937613116 74.10018897013805 H 0.0 **** 0.06
2428 H 131.53588392727596 -0.24515314708818892 73.12010814760578 H 0.0 **** 0.06
2429 H 130.0638264884398 0.43172280634851745 73.85689962987053 H 0.0 **** 0.06
2430 H 131.30430647587923 -0.3271814865219085 74.88330867383249 H 0.0 **** 0.06
2431 C 65.203343606103 45.18844513212373 142.0375899473089 C 0.0 **** -0.24
2432 H 65.17519073678577 46.253287915129434 142.2654403759642 H 0.0 **** 0.06
2433 H 64.29981685636974 44.71096074021477 142.4159305757424 H 0.0 **** 0.06
2434 H 66.0776430473542 44.738973419543456 142.51095266128567 H 0.0 **** 0.06
2435 H 65.26441445804355 45.04997294236573 140.95822653720268 H 0.0 **** 0.06
2436 C 67.36609137774661 217.75763256586612 200.79167661404142 C 0.0 **** -0.24
2437 H 68.40460658164537 217.6018493115518 201.0810937918813 H 0.0 **** 0.06
2438 H 66.73902539652786 217.77472620404777 201.6832463727744 H 0.0 **** 0.06
2439 H 67.04493824618325 216.9463983042694 200.13722629354083 H 0.0 **** 0.06
2440 H 67.274666940288 218.70766132364076 200.2642939163043 H 0.0 **** 0.06
2441 C 22.018743531935655 46.4260523448923 173.67911242355555 C 0.0 **** -0.24
2442 H 22.031410962398724 46.99406281114565 174.60927058988798 H 0.0 **** 0.06
2443 H 21.549341077289142 45.45684267910943 173.85260174585426 H 0.0 **** 0.06
2444 H 23.040216394364023 46.277494971532434 173.3304844604902 H 0.0 **** 0.06
2445 H 21.45311920357463 46.97382120830744 172.9258993376428 H 0.0 **** 0.06
2446 C 210.41673816118856 232.79133004769352 163.25274937670181 C 0.0 **** -0.24
2447 H 210.2639115547269 232.16476939426067 162.3738959491757 H 0.0 **** 0.06
2448 H 211.37990556844323 232.55352638687742 163.70473448458216 H 0.0 **** 0.06
2449 H 209.62050684646184 232.60576916056004 163.97425573723916 H 0.0 **** 0.06
2450 H 210.4021485909977 233.84012121005628 162.95741599833076 H 0.0 **** 0.06
2451 C 75.38915037296965 55.895662568826395 62.426952617299776 C 0.0 **** -0.24
2452 H 75.79641137064556 55.503277904850705 61.49508281666519 H 0.0 **** 0.06
2453 H 76.14653282214547 56.498178396785505 62.92944150471743 H 0.0 **** 0.06
2454 H 75.09599471822591 55.06726647884952 63.07274767786501 H 0.0 **** 0.06
2455 H 74.51765698662038 56.51299114819798 62.21088951616835 H 0.0 **** 0.06
2456 C 199.1594980082835 224.66623615189064 42.69053451341645 C 0.0 **** -0.24
2457 H 198.3658856940437 224.56184878129852 41.951383425705245 H 0.0 **** 0.06
2458 H 198.72118579215692 224.86652471516982 43.667904686717804 H 0.0 **** 0.06
2459 H 199.81202153952614 225.49233235345633 42.40809040398125 H 0.0 **** 0.06
2460 H 199.7389892087732 223.74329164179437 42.73273595529358 H 0.0 **** 0.06
2461 C 77.33803738449228 100.28296573593818 89.12690277011137 C 0.0 **** -0.24
2462 H 77.92245527772468 101.17526170382823 89.35312436213562 H 0.0 **** 0.06
2463 H 77.96241988426891 99.56584221058264 88.59271092645739 H 0.0 **** 0.06
2464 H 76.48491164589413 100.55675982457737 88.50478151427771 H 0.0 **** 0.06
2465 H 76.98245750867602 99.83630913128351 90.05508238214563 H 0.0 **** 0.06
2466 C 107.0357917185321 72.06496233973087 226.8504407563048 C 0.0 **** -0.24
2467 H 106.49364768390154 71.40662072162391 227.5296393531189 H 0.0 **** 0.06
2468 H 106.36511845826266 72.40468129970412 226.06124561272867 H 0.0 **** 0.06
2469 H 107.87187013232474 71.52322168555563 226.40944698335488 H 0.0 **** 0.06
2470 H 107.41130007104707 72.9257799731661 227.4039369630052 H 0.0 **** 0.06
2471 C 171.92729599333256 157.09706337826898 23.019365511726534 C 0.0 **** -0.24
2472 H 172.70783416438806 157.74189020370076 22.614693910821018 H 0.0 **** 0.06
2473 H 171.76837429391372 157.33633479607659 24.070993608680155 H 0.0 **** 0.06
2474 H 172.23197681849675 156.05522735423904 22.924056249819273 H 0.0 **** 0.06
2475 H 171.00157735214734 157.25722549846225 22.466381185951036 H 0.0 **** 0.06
2476 C 231.0999887036458 126.53339860995189 170.4286903608225 C 0.0 **** -0.24
2477 H 231.4467540248351 125.55991928148745 170.0825511194659 H 0.0 **** 0.06
2478 H 230.49563242246595 126.40534171848444 171.32654808005807 H 0.0 **** 0.06
2479 H 230.50000312045245 127.00271720152713 169.64937596761231 H 0.0 **** 0.06
2480 H 231.95923469405327 127.16494856619246 170.6549569121699 H 0.0 **** 0.06
2481 C 89.75718604176393 222.67530825895304 91.87674004923946 C 0.0 **** -0.24
2482 H 89.83516700881086 223.4771128391854 91.1427278221791 H 0.0 **** 0.06
2483 H 88.7157571855121 222.56069337756597 92.18026426948998 H 0.0 **** 0.06
2484 H 90.36490338625686 222.91903203429587 92.74819568214025 H 0.0 **** 0.06
2485 H 90.11210543777995 221.74416029513952 91.43523664134034 H 0.0 **** 0.06
2486 C 83.91575876463352 158.37581888454994 243.0648603150495 C 0.0 **** -0.24
2487 H 84.95680544817574 158.4083401967366 242.74191024766623 H 0.0 **** 0.06
2488 H 83.30758713160674 158.9774801559629 242.3885966393884 H 0.0 **** 0.06
2489 H 83.83696992843528 158.77264157894672 244.07717530605416 H 0.0 **** 0.06
2490 H 83.5637533097335 157.34429151771664 243.0505767296081 H 0.0 **** 0.06
2491 C 221.5671945369073 50.18468642965283 204.29993449283302 C 0.0 **** -0.24
2492 H 220.74659264114908 49.47727047398652 204.17762026614156 H 0.0 **** 0.06
2493 H 222.26637837393034 50.075323886249606 203.47071837608956 H 0.0 **** 0.06
2494 H 222.08285736421337 49.98361031760621 205.2393134479288 H 0.0 **** 0.06
2495 H 221.172102637571 51.20029922818193 204.31157922130996 H 0.0 **** 0.06
2496 C 204.4792400050148 223.87039005010746 128.5438334871462 C 0.0 **** -0.24
2497 H 203.7203226468457 223.8571379325271 127.76216259441995 H 0.0 **** 0.06
2498 H 204.08397773519306 223.3950364038144 129.44217152418773 H 0.0 **** 0.06
2499 H 204.75259832782217 224.90155536179236 128.7670685516563 H 0.0 **** 0.06
2500 H 205.36054908659236 223.32609769808283 128.2030597838007 H 0.0 **** 0.06
2501 C 213.15897867084902 59.64977756434979 0.8892539727857809 C 0.0 **** -0.24
2502 H 213.79902993812993 59.25409116033731 1.6782072157690493 H 0.0 **** 0.06
2503 H 212.61049199391942 60.5133003661407 1.266463876989718 H 0.0 **** 0.06
2504 H 212.45380819973326 58.880922211377936 0.57374704666978 H 0.0 **** 0.06
2505 H 213.77169052278325 59.95078325431669 0.04064728463032452 H 0.0 **** 0.06
2506 C 50.54211313665844 121.21555008972993 243.66752282938523 C 0.0 **** -0.24
2507 H 49.61909859476242 121.79087386602507 243.74269783733308 H 0.0 **** 0.06
2508 H 51.342548932170345 121.74463449677805 244.1849180349165 H 0.0 **** 0.06
2509 H 50.80729675175823 121.09079762802807 242.6173937668267 H 0.0 **** 0.06
2510 H 50.39689580356972 120.23733780304164 244.12477900194864 H 0.0 **** 0.06
2511 C 169.0193728320639 156.10365724984365 171.54488599851825 C 0.0 **** -0.24
2512 H 168.3104861465692 155.27845714349758 171.6121245264353 H 0.0 **** 0.06
2513 H 168.6019467299556 156.89045890689871 170.91646880283537 H 0.0 **** 0.06
2514 H 169.95172753044102 155.74610198752987 171.10886133001443 H 0.0 **** 0.06
2515 H 169.212318314529 156.49864814383903 172.54230757610858 H 0.0 **** 0.06
2516 C 31.26726803041302 162.2356466961618 8.854360304519219 C 0.0 **** -0.24
2517 H 32.17137814600372 162.69872878679277 8.459704200403905 H 0.0 **** 0.06
2518 H 30.558319710988684 163.01135806026124 9.144589065298959 H 0.0 **** 0.06
2519 H 31.519232360033044 161.62890251033926 9.724312626157769 H 0.0 **** 0.06
2520 H 30.818710659731124 161.60269773860617 8.087371718661757 H 0.0 **** 0.06
2521 C 168.13068386354894 31.46145664569613 37.44126582242923 C 0.0 **** -0.24
2522 H 168.21668277983215 32.48457108257443 37.80695230343433 H 0.0 **** 0.06
2523 H 168.31355930028505 31.443393835424416 36.36651288059211 H 0.0 **** 0.06
2524 H 167.1280172297818 31.085529470953105 37.64603387324573 H 0.0 **** 0.06
2525 H 168.86444863805775 30.833176168193148 37.946099919314776 H 0.0 **** 0.06
2526 C 238.08520383015562 61.189130600835085 236.00344162831732 C 0.0 **** -0.24
2527 H 238.32867140148497 61.27188117719675 234.94469735194124 H 0.0 **** 0.06
2528 H 238.10551016937282 60.14006859932806 236.29972214522945 H 0.0 **** 0.06
2529 H 237.09065298721768 61.597849047850644 236.18075608418656 H 0.0 **** 0.06
2530 H 238.8168193802043 61.74665211705883 236.5880509102843 H 0.0 **** 0.06
2531 C 235.94717544074186 48.22428156904786 49.866011848649805 C 0.0 **** -0.24
2532 H 236.0978911139619 47.669375506238254 50.791146758192355 H 0.0 **** 0.06
2533 H 234.9373523969643 48.045909901577915 49.49562887956864 H 0.0 **** 0.06
2534 H 236.67133594202397 47.89263038739389 49.12149076964421 H 0.0 **** 0.06
2535 H 236.08212231001707 49.289210480981154 50.05578098719408 H 0.0 **** 0.06
2536 C 79.94431623587056 205.26877215057033 30.331557557366523 C 0.0 **** -0.24
2537 H 79.76605064853999 205.0330086663452 31.380594032605615 H 0.0 **** 0.06
2538 H 80.37376391221531 206.26829077206847 30.252729878592703 H 0.0 **** 0.06
2539 H 79.00125983161288 205.23368685345937 29.786293211024287 H 0.0 **** 0.06
2540 H 80.63682989096262 204.54085039405004 29.90862100766705 H 0.0 **** 0.06
2541 C 127.861604685933 10.01110562282878 9.062478908027146 C 0.0 **** -0.24
2542 H 127.50557803623917 10.36265800777798 10.03153696985973 H 0.0 **** 0.06
2543 H 128.94947399427713 10.064116539794071 9.034145717781001 H 0.0 **** 0.06
2544 H 127.44506784776178 10.638602591588779 8.274054407421062 H 0.0 **** 0.06
2545 H 127.54334252050901 8.97891538583238 8.911979439645478 H 0.0 **** 0.06
2546 C 233.0535625932318 153.20925357074074 188.69533196159233 C 0.0 **** -0.24
2547 H 232.14358813487286 152.93388646630987 188.16223064688577 H 0.0 **** 0.06
2548 H 233.35360365713956 154.2162301110134 188.4040757449975 H 0.0 **** 0.06
2549 H 233.84823285041017 152.50660525848573 188.44439551247973 H 0.0 **** 0.06
2550 H 232.86842249498625 153.18109999485156 189.76884119922846 H 0.0 **** 0.06
2551 C 134.2785591566604 177.0267541540364 3.6642679160874536 C 0.0 **** -0.24
2552 H 134.5447835612605 176.22409350498475 2.9760600809038635 H 0.0 **** 0.06
2553 H 133.24762619013472 177.33339617154542 3.482927141319095 H 0.0 **** 0.06
2554 H 134.94379174620644 177.87586626217154 3.505186786513349 H 0.0 **** 0.06
2555 H 134.37806823747488 176.673827023353 4.690454033037241 H 0.0 **** 0.06
2556 C 224.68417863451577 193.30792172024383 65.55065254514395 C 0.0 **** -0.24
2557 H 223.9440610652524 194.10206508173286 65.65058690990142 H 0.0 **** 0.06
2558 H 225.43352923435347 193.6013859965056 64.81439920433607 H 0.0 **** 0.06
2559 H 224.1927971957179 192.39234750762395 65.22375088228645 H 0.0 **** 0.06
2560 H 225.16683717342283 193.1383071530778 66.51249878573557 H 0.0 **** 0.06
2561 C 156.1237595092061 73.76802128844423 191.69182356749837 C 0.0 **** -0.24
2562 H 155.2908973020202 73.26173349917872 192.1802176618085 H 0.0 **** 0.06
2563 H 157.06102291213207 73.3021807995961 191.99839580160233 H 0.0 **** 0.06
2564 H 156.12839057640795 74.81845737711024 191.97854315520217 H 0.0 **** 0.06
2565 H 156.01390423708614 73.68682914183483 190.61019552227458 H 0.0 **** 0.06
2566 C 27.840945813672107 136.22429632275447 196.64101674341597 C 0.0 **** -0.24
2567 H 27.672460211042647 135.72761686067562 195.6854767479051 H 0.0 **** 0.06
2568 H 28.00053248534104 135.4750949436244 197.4170959701738 H 0.0 **** 0.06
2569 H 26.97034837219539 136.8305367012947 196.8932770794037 H 0.0 **** 0.06
2570 H 28.720246592479526 136.86516777188473 196.56754901831212 H 0.0 **** 0.06
2571 C 90.193251612323 235.20456112981378 30.98538719392532 C 0.0 **** -0.24
2572 H 89.87680471819803 236.22183973712137 30.756323532131873 H 0.0 **** 0.06
2573 H 91.28081960405868 235.168073817471 31.049450520235098 H 0.0 **** 0.06
2574 H 89.8525867759607 234.53182548563314 30.19844705045695 H 0.0 **** 0.06
2575 H 89.76267094752527 234.89684573809362 31.93825974436801 H 0.0 **** 0.06
2576 C 78.34413058015465 234.49082482412766 125.78955088980388 C 0.0 **** -0.24
2577 H 78.0515904600783 235.3265260646073 125.15379835587603 H 0.0 **** 0.06
2578 H 77.52010333588916 234.23491753409883 126.45586022661632 H 0.0 **** 0.06
2579 H 79.21575801259175 234.7728935913276 126.38019748398003 H 0.0 **** 0.06
2580 H 78.59051721717836 233.6305767768458 125.16720734261085 H 0.0 **** 0.06
2581 C 224.63824847668357 28.278328238284615 59.35843011553979 C 0.0 **** -0.24
2582 H 225.69473013097252 28.392064319558145 59.11561704652269 H 0.0 **** 0.06
2583 H 224.53727454995442 27.94362262716041 60.39232276896411 H 0.0 **** 0.06
2584 H 224.1889336007173 27.54228165793201 58.692032231946996 H 0.0 **** 0.06
2585 H 224.13274881847732 29.23604161070547 59.23575673666551 H 0.0 **** 0.06
2586 C 82.25843673864696 156.4488767980693 195.80583819819446 C 0.0 **** -0.24
2587 H 81.46699751525475 157.12365228266341 195.48404705114407 H 0.0 **** 0.06
2588 H 82.13935954047113 155.48482264678756 195.3094172055551 H 0.0 **** 0.06
2589 H 82.20107220164604 156.31043835580718 196.88572971205411 H 0.0 **** 0.06
2590 H 83.2276184883203 156.87413061280486 195.545272471974 H 0.0 **** 0.06
2591 C 179.63563333684746 11.636489304198818 5.424960942091019 C 0.0 **** -0.24
2592 H 180.21506653042366 12.43767099882919 4.965715212987419 H 0.0 **** 0.06
2593 H 180.25116788391105 11.118973139450375 6.160905784978027 H 0.0 **** 0.06
2594 H 179.31747142790624 10.93221070702684 4.655963392621871 H 0.0 **** 0.06
2595 H 178.7585945927647 12.057832431038307 5.916616902397479 H 0.0 **** 0.06
2596 C 230.00369884467764 101.54024718675143 220.39414954123663 C 0.0 **** -0.24
2597 H 230.18780013015157 100.46952254239861 220.3022799142788 H 0.0 **** 0.06
2598 H 229.84075789113805 101.79095400819011 221.44250726065044 H 0.0 **** 0.06
2599 H 229.11999068696002 101.80736096113844 219.81461896138018 H 0.0 **** 0.06
2600 H 230.86544424757471 102.09065467929139 220.01825193599845 H 0.0 **** 0.06
2601 C 180.13621072549068 170.8609264220034 157.3413877811265 C 0.0 **** -0.24
2602 H 179.55179635912987 171.50762138005206 157.99586852847537 H 0.0 **** 0.06
2603 H 181.19362749987357 170.94808153282054 157.5947656387374 H 0.0 **** 0.06
2604 H 179.98547972546072 171.1613200813418 156.30489543864098 H 0.0 **** 0.06
2605 H 179.81640583620424 169.82732625684216 157.47160335294288 H 0.0 **** 0.06
2606 C 96.61084177223137 219.5985641448181 219.06268860474188 C 0.0 **** -0.24
2607 H 96.95475151562874 218.70511435476283 219.58460731308082 H 0.0 **** 0.06
2608 H 96.37979906155209 219.34708238470384 218.02678717365302 H 0.0 **** 0.06
2609 H 97.39277122306879 220.3567711113371 219.08639697302385 H 0.0 **** 0.06
2610 H 95.7163233657406 219.98333761125457 219.55093419291904 H 0.0 **** 0.06
2611 C 136.12960847888726 132.9776241208481 27.229524403708353 C 0.0 **** -0.24
2612 H 135.0916683342535 132.9973739617629 26.898001004424998 H 0.0 **** 0.06
2613 H 136.70601895755846 133.70918800003426 26.66181951947175 H 0.0 **** 0.06
2614 H 136.54386070799347 131.9827994014596 27.06685776941498 H 0.0 **** 0.06
2615 H 136.1765765107583 133.22202366365158 28.29108054620866 H 0.0 **** 0.06
2616 C 200.28347848253392 76.44445639652571 72.16150630950781 C 0.0 **** -0.24
2617 H 199.38265894699362 75.96295894875942 71.78151955003955 H 0.0 **** 0.06
2618 H 200.1250357104862 77.52202251140343 72.21185242928763 H 0.0 **** 0.06
2619 H 201.11806827443192 76.23019182682634 71.4946643994642 H 0.0 **** 0.06
2620 H 200.50608269002967 76.06268111759294 73.15713955399667 H 0.0 **** 0.06
2621 C 162.8566386297503 14.707520156478239 84.02237240648634 C 0.0 **** -0.24
2622 H 162.18045710708392 14.601180764839086 83.17358676826149 H 0.0 **** 0.06
2623 H 163.07515515184826 15.762786491748074 84.18193758928686 H 0.0 **** 0.06
2624 H 163.7835912801553 14.17135110246906 83.81743313625796 H 0.0 **** 0.06
2625 H 162.3872785752539 14.293610330105679 84.91461696948957 H 0.0 **** 0.06
2626 C 183.86293084624003 159.08473160477865 33.38813429541551 C 0.0 **** -0.24
2627 H 184.57325597543073 159.47815547128747 32.66146144310157 H 0.0 **** 0.06
2628 H 182.8772125503387 159.5110238459905 33.201246796872496 H 0.0 **** 0.06
2629 H 184.18872623877465 159.34939430864432 34.39445114007222 H 0.0 **** 0.06
2630 H 183.81261944324484 157.99981311429977 33.29621476496281 H 0.0 **** 0.06
2631 C 140.69450672340824 188.50202325904917 113.29715889108678 C 0.0 **** -0.24
2632 H 140.0103758217361 189.0793311238396 112.67500930258231 H 0.0 **** 0.06
2633 H 140.8345149623867 187.5126687130455 112.86180978643338 H 0.0 **** 0.06
2634 H 140.27671047264838 188.40295320081646 114.29977347311308 H 0.0 **** 0.06
2635 H 141.6551491213382 189.01456915078867 113.3526157768597 H 0.0 **** 0.06
2636 C 66.17713018891484 242.46380399722295 215.1375563215117 C 0.0 **** -0.24
2637 H 66.90252018184762 242.17544384734055 214.3765915692691 H 0.0 **** 0.06
2638 H 66.15528378038223 241.70845779150403 215.9231767223299 H 0.0 **** 0.06
2639 H 65.1890980829206 242.54657297398722 214.6842094038784 H 0.0 **** 0.06
2640 H 66.4622988904184 243.4256061380676 215.5649098420229 H 0.0 **** 0.06
2641 C 35.867841059484135 178.4726308177784 136.3942888335536 C 0.0 **** -0.24
2642 H 36.754398472710335 179.06369857852104 136.16851813807588 H 0.0 **** 0.06
2643 H 35.87456295745562 178.19515667999522 137.4485850408066 H 0.0 **** 0.06
2644 H 35.86745827060585 177.57105998597652 135.78062649112357 H 0.0 **** 0.06
2645 H 34.97490549908193 179.05957859207865 136.17744102589396 H 0.0 **** 0.06
2646 C 204.64170695188466 93.07113300492 155.5330206150318 C 0.0 **** -0.24
2647 H 205.4992795755902 92.51152729216372 155.90678954395074 H 0.0 **** 0.06
2648 H 204.39621529416968 93.8699384637271 156.2328464891772 H 0.0 **** 0.06
2649 H 203.78814658964694 92.4008965951719 155.43146062261306 H 0.0 **** 0.06
2650 H 204.88417717007002 93.5001770634833 154.56076706857567 H 0.0 **** 0.06
2651 C 235.3721173231895 61.78406808280366 212.74404886573078 C 0.0 **** -0.24
2652 H 234.66117969485376 62.60906631240306 212.76997501910589 H 0.0 **** 0.06
2653 H 235.75153769797936 61.59953118784094 213.74940347429683 H 0.0 **** 0.06
2654 H 236.20123684210608 62.039800987464076 212.08460738237218 H 0.0 **** 0.06
2655 H 234.87578424679486 60.887594857391065 212.37276757062943 H 0.0 **** 0.06
2656 C 235.23290449864083 243.546198827858 149.0658800513809 C 0.0 **** -0.24
2657 H 236.29343282423213 243.66846975777395 149.28707242055324 H 0.0 **** 0.06
2658 H 234.65263316256608 244.23274977018886 149.68280513162256 H 0.0 **** 0.06
2659 H 234.93321476285823 242.52139419072682 149.28224565600146 H 0.0 **** 0.06
2660 H 235.05451772615268 243.76346339716585 148.0130102445668 H 0.0 **** 0.06
2661 C 84.51968655176546 5.175116482408569 236.45077152984646 C 0.0 **** -0.24
2662 H 83.83839271299232 5.325664663881895 237.2883266155097 H 0.0 **** 0.06
2663 H 83.97223200849206 4.750180157807037 235.60947538003393 H 0.0 **** 0.06
2664 H 85.31658326254706 4.493627972529296 236.74815950948283 H 0.0 **** 0.06
2665 H 84.95139113323222 6.132323475709427 236.1575813186072 H 0.0 **** 0.06
2666 C 11.536104039764169 128.1779390290935 23.746467439890864 C 0.0 **** -0.24
2667 H 10.611193214803706 128.3643248211246 23.20031281419105 H 0.0 **** 0.06
2668 H 12.387721562024964 128.3476994304469 23.086323828179772 H 0.0 **** 0.06
2669 H 11.548085864775317 127.14630454161261 24.097671491410324 H 0.0 **** 0.06
2670 H 11.597224500250931 128.85334761389544 24.599841978123735 H 0.0 **** 0.06
2671 C 98.74866327979828 127.69625929921523 72.7301737219646 C 0.0 **** -0.24
2672 H 99.00199335582764 128.04136946273593 73.73303135164684 H 0.0 **** 0.06
2673 H 99.65614946833969 127.38212706506488 72.21463776297787 H 0.0 **** 0.06
2674 H 98.27773884210669 128.50748574601707 72.17560146491394 H 0.0 **** 0.06
2675 H 98.05918129605925 126.85442769008984 72.79959066978944 H 0.0 **** 0.06
2676 C 121.82209574464676 99.84492343941571 42.59138909061066 C 0.0 **** -0.24
2677 H 120.87258021932038 99.82820860540136 42.056799111194906 H 0.0 **** 0.06
2678 H 122.4487819627735 100.6432554881822 42.19235161788204 H 0.0 **** 0.06
2679 H 122.32721044578804 98.88788134740258 42.46429804729607 H 0.0 **** 0.06
2680 H 121.63972194397516 100.02175920547228 43.6521475426938 H 0.0 **** 0.06
2681 C 6.9325938411614345 117.15819862461984 70.31653027770327 C 0.0 **** -0.24
2682 H 5.904359592929424 117.15352206521476 70.67706463324618 H 0.0 **** 0.06
2683 H 7.0579635909842295 117.95937844018212 69.58736643497096 H 0.0 **** 0.06
2684 H 7.1575480621796 116.20041982718098 69.84722872910785 H 0.0 **** 0.06
2685 H 7.610181588738797 117.3196052032462 71.1553987640047 H 0.0 **** 0.06
2686 C 33.76492739778227 17.759247500562054 146.75715821535033 C 0.0 **** -0.24
2687 H 32.67965716768968 17.844130486735224 146.70679979966008 H 0.0 **** 0.06
2688 H 34.18236970647456 17.840482556174578 145.75330645422594 H 0.0 **** 0.06
2689 H 34.03478527430045 16.794487376463252 147.1861514481524 H 0.0 **** 0.06
2690 H 34.163861251760494 18.558848935306372 147.38198691406166 H 0.0 **** 0.06
2691 C 172.31662813943555 189.52609762016272 106.70653808518679 C 0.0 **** -0.24
2692 H 172.03869551967537 188.62786137461586 106.15615488745729 H 0.0 **** 0.06
2693 H 171.4762021027638 190.221314990501 106.71481272023613 H 0.0 **** 0.06
2694 H 173.17307248025705 189.9976410444183 106.22543991286756 H 0.0 **** 0.06
2695 H 172.57663556193617 189.25839970749843 107.73104115709575 H 0.0 **** 0.06
2696 C 187.36356107271752 21.37993070174207 216.91576065388784 C 0.0 **** -0.24
2697 H 188.1341898797363 20.608845868340794 216.9061692654617 H 0.0 **** 0.06
2698 H 186.6131470264388 21.153027093408554 216.15790440828232 H 0.0 **** 0.06
2699 H 187.81634970178192 22.34802920771189 216.70085297080084 H 0.0 **** 0.06
2700 H 186.89182540181912 21.409150470019085 217.89714448064342 H 0.0 **** 0.06
2701 C 150.41968387724538 167.6248024033568 120.50123479750374 C 0.0 **** -0.24
2702 H 149.57395055549597 167.31347344253328 121.11473540897481 H 0.0 **** 0.06
2703 H 151.18035224563897 166.84395429055772 120.50797496612151 H 0.0 **** 0.06
2704 H 150.84068200397985 168.54586373538606 120.90332951384292 H 0.0 **** 0.06
2705 H 150.08284800745082 167.79486355446835 119.47862912044812 H 0.0 **** 0.06
2706 C 248.7931096480462 111.12280056579445 18.739640075734428 C 0.0 **** -0.24
2707 H 249.8496562717877 111.38614136392368 18.78552494762782 H 0.0 **** 0.06
2708 H 248.49278764530754 111.00615309395522 17.697409463082693 H 0.0 **** 0.06
2709 H 248.20155864781998 111.9128975657743 19.20167872081994 H 0.0 **** 0.06
2710 H 248.6278860566391 110.18617590001156 19.27312857587458 H 0.0 **** 0.06
2711 C 61.84968366234679 103.5376991955664 48.17574310369203 C 0.0 **** -0.24
2712 H 62.863121140650065 103.39265546890624 48.55032736249218 H 0.0 **** 0.06
2713 H 61.586995526184666 104.59441942219726 48.239664077014694 H 0.0 **** 0.06
2714 H 61.15398352106669 102.9525485279874 48.77616426175723 H 0.0 **** 0.06
2715 H 61.79755850213675 103.21178449862072 47.136539969258095 H 0.0 **** 0.06
2716 C 248.34340901941664 191.917070012863 203.67441016049114 C 0.0 **** -0.24
2717 H 249.1102918112843 191.89314894759087 202.90010586859165 H 0.0 **** 0.06
2718 H 247.8708593191251 192.8993349785862 203.68815385720563 H 0.0 **** 0.06
2719 H 248.80013047973847 191.72018187542378 204.6443860051089 H 0.0 **** 0.06
2720 H 247.59276059509278 191.15465098033658 203.4659473771789 H 0.0 **** 0.06
2721 C 142.09325792268737 143.40683526578275 64.77167446181559 C 0.0 **** -0.24
2722 H 143.0874776366922 143.13858792970015 64.41412572715379 H 0.0 **** 0.06
2723 H 141.5089949522972 143.8178093205916 63.947088688698784 H 0.0 **** 0.06
2724 H 142.18018657614107 144.1517004819733 65.56275523444188 H 0.0 **** 0.06
2725 H 141.59626985766766 142.5184371234254 65.16157082566656 H 0.0 **** 0.06
2726 C 153.64662255592742 30.97053925770713 10.990104746296126 C 0.0 **** -0.24
2727 H 152.64259199300702 30.740259297414667 11.346642737064073 H 0.0 **** 0.06
2728 H 154.30573653794983 30.125258176413837 11.188513978094107 H 0.0 **** 0.06
2729 H 154.02227870166516 31.853606187762807 11.507014628616474 H 0.0 **** 0.06
2730 H 153.6147182618036 31.163741489694786 9.91787082502519 H 0.0 **** 0.06
2731 C 73.2488482257829 83.9869524415437 17.308885829714825 C 0.0 **** -0.24
2732 H 74.03879765164723 84.10784018262476 18.04898285773841 H 0.0 **** 0.06
2733 H 73.38721476375895 83.0430881934378 16.781806567374545 H 0.0 **** 0.06
2734 H 73.29059281551125 84.81102376029224 16.595675178111946 H 0.0 **** 0.06
2735 H 72.28062169728315 83.98685774436376 17.80779958258026 H 0.0 **** 0.06
2736 C 76.69469427628246 245.47172669979028 123.29605945754014 C 0.0 **** -0.24
2737 H 77.29389898091446 246.32374447432287 123.61851412289118 H 0.0 **** 0.06
2738 H 77.3240826599766 244.5818134478231 123.25291721192826 H 0.0 **** 0.06
2739 H 76.27980124893065 245.6721233036184 122.30801211542035 H 0.0 **** 0.06
2740 H 75.88314824647222 245.30872802513005 124.00513000494027 H 0.0 **** 0.06
2741 C 154.77851176327235 183.6335818005643 102.32289293815327 C 0.0 **** -0.24
2742 H 154.25383335537504 183.87934047225724 101.39883946198697 H 0.0 **** 0.06
2743 H 154.1773807845694 183.94890695448305 103.1755277718361 H 0.0 **** 0.06
2744 H 155.73800979542025 184.15007494776452 102.34326255935795 H 0.0 **** 0.06
2745 H 154.94308738956857 182.55776486287152 102.372242073617 H 0.0 **** 0.06
2746 C 182.63131321889202 176.54422415208188 110.9257025897584 C 0.0 **** -0.24
2747 H 182.12329707028314 177.48500168430138 110.71398864278504 H 0.0 **** 0.06
2748 H 181.9006397461345 175.80312420524757 111.25165462040806 H 0.0 **** 0.06
2749 H 183.36837921327182 176.69827738222062 111.71255319316623 H 0.0 **** 0.06
2750 H 183.13039771449417 176.19115259726397 110.02355642216133 H 0.0 **** 0.06
2751 C 85.2919787824325 15.870153961103227 30.491170982832585 C 0.0 **** -0.24
2752 H 84.79873972246224 16.542646162008367 31.193745568632806 H 0.0 **** 0.06
2753 H 85.23036395327713 16.286805708363346 29.48545605764818 H 0.0 **** 0.06
2754 H 84.79827320646066 14.897745761793288 30.51228219894128 H 0.0 **** 0.06
2755 H 86.33767177723485 15.753362501865894 30.77408347015526 H 0.0 **** 0.06
2756 C 84.65375319241843 87.80718530088697 183.53623435964937 C 0.0 **** -0.24
2757 H 85.02700031805534 86.9285606106607 183.0108832408191 H 0.0 **** 0.06
2758 H 84.37088802152442 88.56990109810849 182.810548835887 H 0.0 **** 0.06
2759 H 85.43344928199238 88.19854683360413 184.1893390397114 H 0.0 **** 0.06
2760 H 83.78390042555176 87.53183906053144 184.13194416603443 H 0.0 **** 0.06
2761 C 227.83441343032655 171.81152045166002 204.6412687568957 C 0.0 **** -0.24
2762 H 228.33194976463807 172.66062457136528 204.1725243058924 H 0.0 **** 0.06
2763 H 227.0582977809135 172.1733659633082 205.31668929767602 H 0.0 **** 0.06
2764 H 228.56303379732284 171.22917998185343 205.2046616042291 H 0.0 **** 0.06
2765 H 227.38368559508953 171.1848500827962 203.87253003405294 H 0.0 **** 0.06
2766 C 167.74545168286923 82.20754673080546 192.76453935881585 C 0.0 **** -0.24
2767 H 168.76287031986553 82.05822766658014 192.40491498506515 H 0.0 **** 0.06
2768 H 167.30470872040422 81.24242775458902 193.0156719500921 H 0.0 **** 0.06
2769 H 167.15127790853882 82.68707429630274 191.986935729364 H 0.0 **** 0.06
2770 H 167.76343358987108 82.84036905119828 193.65127163010442 H 0.0 **** 0.06
2771 C 46.06425962230142 191.26921038895512 91.00348024958433 C 0.0 **** -0.24
2772 H 45.833408851879 190.20411716794547 91.00252230920526 H 0.0 **** 0.06
2773 H 46.44437030072598 191.5567928392917 91.98463201788624 H 0.0 **** 0.06
2774 H 45.1612963807722 191.83775406080935 90.78281299176942 H 0.0 **** 0.06
2775 H 46.819929309474986 191.47810678784688 90.24642927076579 H 0.0 **** 0.06
2776 C 87.88076447334839 165.0240483321292 189.95053087809657 C 0.0 **** -0.24
2777 H 87.29437237493804 165.55525189255326 190.70045331170274 H 0.0 **** 0.06
2778 H 87.31560259006537 164.97043277551884 189.01976990359418 H 0.0 **** 0.06
2779 H 88.09472405323183 164.01601323602205 190.30475976641947 H 0.0 **** 0.06
2780 H 88.81600903654953 165.55493289422697 189.77767619577804 H 0.0 **** 0.06
2781 C 218.42737141997463 21.835788390041827 24.19223451833537 C 0.0 **** -0.24
2782 H 218.3610398936067 21.674107428476674 25.268804989030258 H 0.0 **** 0.06
2783 H 218.1722311538861 20.91356037936289 23.669636665389447 H 0.0 **** 0.06
2784 H 219.44346811963766 22.132379126708756 23.932525067944397 H 0.0 **** 0.06
2785 H 217.7335837740497 22.623880479546315 23.90055982959339 H 0.0 **** 0.06
2786 C 214.16296872106034 112.03403179451485 228.76576493265782 C 0.0 **** -0.24
2787 H 215.1801448080704 112.34554927891554 228.53164911007934 H 0.0 **** 0.06
2788 H 213.4613550587427 112.57929724965626 228.13303083438836 H 0.0 **** 0.06
2789 H 213.9493080553657 112.24698161282674 229.81291299199466 H 0.0 **** 0.06
2790 H 214.0599830907468 110.96366888404597 228.5842717377413 H 0.0 **** 0.06
2791 C 33.39230130926191 27.375172716690898 201.6560186770871 C 0.0 **** -0.24
2792 H 33.923432012494786 26.426814695748263 201.56837839193176 H 0.0 **** 0.06
2793 H 33.06438652447804 27.699032993186535 200.66773734359626 H 0.0 **** 0.06
2794 H 34.0564820567142 28.126146608770043 202.08393305896138 H 0.0 **** 0.06
2795 H 32.52389898122877 27.24694887546009 202.30305934288424 H 0.0 **** 0.06
2796 C 2.728160973933086 85.06241708576792 139.12121079179568 C 0.0 **** -0.24
2797 H 2.470946740266726 84.5124593409146 138.21615008528363 H 0.0 **** 0.06
2798 H 3.0139838408502158 84.3600557630171 139.90486341891315 H 0.0 **** 0.06
2799 H 1.865660225557491 85.64268795620839 139.45014657886512 H 0.0 **** 0.06
2800 H 3.560182209805845 85.73457685140744 138.9143812261189 H 0.0 **** 0.06
2801 C 106.28322180177065 30.143838244522186 206.5726330066952 C 0.0 **** -0.24
2802 H 107.06762484094764 30.90016888130245 206.60761033341348 H 0.0 **** 0.06
2803 H 105.30848160662316 30.632222121307024 206.57319436549975 H 0.0 **** 0.06
2804 H 106.36518280076484 29.494775514004772 207.44478983946965 H 0.0 **** 0.06
2805 H 106.39200057623052 29.54977976568685 205.66548458076838 H 0.0 **** 0.06
2806 C 229.85724081217688 247.50920728443594 47.665131101784496 C 0.0 **** -0.24
2807 H 229.28235476391833 248.37592074405623 47.33948808274012 H 0.0 **** 0.06
2808 H 229.7644784913286 247.39574232176892 48.74521879396531 H 0.0 **** 0.06
2809 H 230.9055247853793 247.6495703194346 47.40296227927021 H 0.0 **** 0.06
2810 H 229.4760552063164 246.61485664977323 47.171782290437704 H 0.0 **** 0.06
2811 C 217.78695558363538 188.28565649577462 65.68118141417472 C 0.0 **** -0.24
2812 H 218.3504036143978 187.95130533818278 64.80956670708716 H 0.0 **** 0.06
2813 H 216.7228323885146 188.30505627512053 65.43959691056395 H 0.0 **** 0.06
2814 H 218.11428377788454 189.2862278041631 65.9628725120024 H 0.0 **** 0.06
2815 H 217.95933015743665 187.599213624455 66.50979516863364 H 0.0 **** 0.06
2816 C 162.83702306666854 241.80461752260172 54.74297073264469 C 0.0 **** -0.24
2817 H 163.51269417287077 241.68530342764782 55.58981503367781 H 0.0 **** 0.06
2818 H 161.89735999389248 242.2387697743878 55.085868253851004 H 0.0 **** 0.06
2819 H 162.64413024946728 240.82961844092722 54.29282437440088 H 0.0 **** 0.06
2820 H 163.2937164479214 242.46181939732747 54.00291977428057 H 0.0 **** 0.06
2821 C 46.974896788393835 34.40632083219256 159.9856590207111 C 0.0 **** -0.24
2822 H 46.78913627263695 33.5798503197926 160.6729727118776 H 0.0 **** 0.06
2823 H 47.63445150864197 35.131938304381634 160.4605394412421 H 0.0 **** 0.06
2824 H 46.03026377078197 34.88534255070559 159.72983834941763 H 0.0 **** 0.06
2825 H 47.44539620321525 34.024430824575546 159.0790941299257 H 0.0 **** 0.06
2826 C 106.00350377913483 94.4664987787317 40.98390155799299 C 0.0 **** -0.24
2827 H 105.30857514126507 94.5647624914607 41.817243618459 H 0.0 **** 0.06
2828 H 105.99301734992889 93.43799927331506 40.62138896065332 H 0.0 **** 0.06
2829 H 107.00897307078725 94.72410512700424 41.316177103833155 H 0.0 **** 0.06
2830 H 105.70417968372527 95.1389096279432 40.17924118516291 H 0.0 **** 0.06
2831 C 176.55999631272545 246.016696463353 239.97649039129396 C 0.0 **** -0.24
2832 H 177.03241952467715 246.26626377650916 240.92691084589967 H 0.0 **** 0.06
2833 H 176.68787680628688 246.84423671011558 239.27851238962504 H 0.0 **** 0.06
2834 H 175.49712122081303 245.83530823491776 240.13533753810793 H 0.0 **** 0.06
2835 H 177.02512072291114 245.11948006380348 239.56569165240825 H 0.0 **** 0.06
2836 C 104.32134751383242 19.268791283114552 89.85609471618889 C 0.0 **** -0.24
2837 H 105.25432256518482 19.157500650051276 90.40876778345807 H 0.0 **** 0.06
2838 H 103.6475870760157 18.45088525116128 90.11362952069248 H 0.0 **** 0.06
2839 H 104.52727346299116 19.24754482592985 88.78665203628609 H 0.0 **** 0.06
2840 H 103.8553526034766 20.21928832291772 90.11820481049645 H 0.0 **** 0.06
2841 C 142.24834449617845 210.47527311877406 62.89529767228248 C 0.0 **** -0.24
2842 H 142.20324816530055 211.54805490809088 63.083632812541765 H 0.0 **** 0.06
2843 H 142.10588043037637 210.2862369584028 61.83188529829826 H 0.0 **** 0.06
2844 H 141.46384947890317 209.97418820923596 63.463089058423805 H 0.0 **** 0.06
2845 H 143.22168434800565 210.09351889181903 63.2059789030715 H 0.0 **** 0.06
2846 C 94.70356837800983 18.048531960033486 223.1775112473058 C 0.0 **** -0.24
2847 H 94.01435306546327 17.25764183946528 222.88083694195095 H 0.0 **** 0.06
2848 H 94.4775469379791 18.955125342620747 222.61460953881743 H 0.0 **** 0.06
2849 H 95.72634675935373 17.736745138806015 222.96969903893947 H 0.0 **** 0.06
2850 H 94.59278782749433 18.245705764284395 224.24337602342933 H 0.0 **** 0.06
2851 C 226.52788672319033 148.35026977651606 77.86501070203423 C 0.0 **** -0.24
2852 H 225.94296230081972 149.07902370016137 78.42708695853773 H 0.0 **** 0.06
2853 H 226.8498078749862 147.55066465622565 78.53249852736153 H 0.0 **** 0.06
2854 H 227.40103336690885 148.84016405215604 77.43500244817662 H 0.0 **** 0.06
2855 H 225.91483770963265 147.93271783223233 77.06603269597997 H 0.0 **** 0.06
2856 C 167.25940968678205 156.77365895836232 235.07434670479628 C 0.0 **** -0.24
2857 H 166.3754853818314 157.3038050899528 234.72136021728411 H 0.0 **** 0.06
2858 H 167.12548509233278 155.7025571333007 234.92154076018463 H 0.0 **** 0.06
2859 H 167.40369717286532 156.97429066478895 236.13633569555003 H 0.0 **** 0.06
2860 H 168.13277600818492 157.11435594761335 234.51905723945623 H 0.0 **** 0.06
2861 C 31.566563022896872 34.61257194978626 90.43919158958164 C 0.0 **** -0.24
2862 H 31.784938366234115 33.784627652046 91.11455521751284 H 0.0 **** 0.06
2863 H 30.487257009892602 34.757682478204714 90.38106202812955 H 0.0 **** 0.06
2864 H 31.956910407365058 34.384450205767195 89.44729897445305 H 0.0 **** 0.06
2865 H 32.036536678755596 35.52126950303082 90.81457816755488 H 0.0 **** 0.06
2866 C 102.4369096174164 71.08704956718617 153.37739559104938 C 0.0 **** -0.24
2867 H 103.23308928225339 71.63889493694381 153.8760509714434 H 0.0 **** 0.06
2868 H 102.14409351564487 71.6118724734566 152.46766363966492 H 0.0 **** 0.06
2869 H 101.57788284987268 71.00756419086295 154.0437083237565 H 0.0 **** 0.06
2870 H 102.79233490733097 70.0881731567998 153.12243410631456 H 0.0 **** 0.06
2871 C 90.4528990344414 103.01050900763735 176.17667761067264 C 0.0 **** -0.24
2872 H 90.9938038755133 102.29790264853091 175.55500109760982 H 0.0 **** 0.06
2873 H 90.37777481657528 102.62193435197298 177.19320880847187 H 0.0 **** 0.06
2874 H 89.4520829323836 103.16028919555905 175.77054880963254 H 0.0 **** 0.06
2875 H 90.98566385883194 103.96068073676133 176.18947931813142 H 0.0 **** 0.06
2876 C 142.83358270750085 230.11868956972896 71.9490725975374 C 0.0 **** -0.24
2877 H 142.0428185926473 230.2491359484444 71.21032607424144 H 0.0 **** 0.06
2878 H 142.40277160466212 230.143791386984 72.94977747759782 H 0.0 **** 0.06
2879 H 143.562187936667 230.921969798264 71.84630660251969 H 0.0 **** 0.06
2880 H 143.3250959946218 229.15861797789523 71.78835294589172 H 0.0 **** 0.06
2881 C 117.75693982960576 11.996575387176634 194.66553907900928 C 0.0 **** -0.24
2882 H 116.8070632218469 11.489190551699963 194.49864503322743 H 0.0 **** 0.06
2883 H 117.92596081881268 12.723164600337782 193.87004891484406 H 0.0 **** 0.06
2884 H 118.56418295802567 11.26353575663984 194.6665437542333 H 0.0 **** 0.06
2885 H 117.73055231973777 12.510410640028852 195.62691861373239 H 0.0 **** 0.06
2886 C 167.81315383814643 21.80355162483511 35.66438948434721 C 0.0 **** -0.24
2887 H 168.02456940015253 21.134854082718036 34.83010139004868 H 0.0 **** 0.06
2888 H 167.86061948461696 22.836919253225858 35.322767012247965 H 0.0 **** 0.06
2889 H 168.55144605033138 21.64664348459783 36.45113977481368 H 0.0 **** 0.06
2890 H 166.81632257529415 21.594164184494005 36.054663643238726 H 0.0 **** 0.06
2891 C 230.75996573655004 2.027334116312673 199.89768205241637 C 0.0 **** -0.24
2892 H 231.12903164104893 1.9660826157212767 200.92186132806836 H 0.0 **** 0.06
2893 H 229.6798440605038 2.172742681360816 199.91029481839018 H 0.0 **** 0.06
2894 H 230.9967343497721 1.1024916358371115 199.37147431686327 H 0.0 **** 0.06
2895 H 231.23521144889105 2.8668511469175115 199.3900500601542 H 0.0 **** 0.06
2896 C 130.81555794618765 97.32981393714152 111.80440427636609 C 0.0 **** -0.24
2897 H 130.28152885312687 96.8360681413325 112.61604494953158 H 0.0 **** 0.06
2898 H 131.5018342562155 96.62191445392884 111.33781266308006 H 0.0 **** 0.06
2899 H 131.37821872386283 98.17456443026254 112.20064412023498 H 0.0 **** 0.06
2900 H 130.10027892618078 97.68501691819975 111.06310249757817 H 0.0 **** 0.06
2901 C 94.57792959808029 103.18899839178067 189.56599151203102 C 0.0 **** -0.24
2902 H 94.38824439563095 103.03186188447899 188.50439638828777 H 0.0 **** 0.06
2903 H 93.63070146808212 103.2094002355312 190.10585095052596 H 0.0 **** 0.06
2904 H 95.09787024944742 104.13689347273743 189.70628123979745 H 0.0 **** 0.06
2905 H 95.19591236716485 102.37609363759046 189.94882925607357 H 0.0 **** 0.06
2906 C 84.74327069593872 136.90018653643253 29.721523351566148 C 0.0 **** -0.24
2907 H 84.4460881381973 136.9400748930365 28.673318686110036 H 0.0 **** 0.06
2908 H 85.08572138321273 135.89420754636018 29.96391841460087 H 0.0 **** 0.06
2909 H 83.89108602443349 137.15682469119324 30.350314816182916 H 0.0 **** 0.06
2910 H 85.55043137509645 137.61100165631984 29.896520681493953 H 0.0 **** 0.06
2911 C 229.94250077938818 2.7603854692339667 47.122267637944674 C 0.0 **** -0.24
2912 H 230.97667155584134 2.8561329204331827 46.79340780862805 H 0.0 **** 0.06
2913 H 229.90282226037016 2.1478934444095614 48.023511618270334 H 0.0 **** 0.06
2914 H 229.3535893864394 2.2876854078430426 46.3362551749222 H 0.0 **** 0.06
2915 H 229.5362648756281 3.7486044688738787 47.33615817304917 H 0.0 **** 0.06
2916 C 130.64177399996498 143.67490436897936 60.71978591795704 C 0.0 **** -0.24
2917 H 131.32313206870901 143.82100422143836 59.88080344031573 H 0.0 **** 0.06
2918 H 129.84380486712362 142.9930043838509 60.424648238844725 H 0.0 **** 0.06
2919 H 130.21342414666753 144.6332255483823 61.011255430648475 H 0.0 **** 0.06
2920 H 131.190352039741 143.25098888377576 61.56103223564395 H 0.0 **** 0.06
2921 C 94.08040535509235 102.1909338249813 206.3044366943952 C 0.0 **** -0.24
2922 H 94.58142982931139 102.33329782760455 205.3461587855796 H 0.0 **** 0.06
2923 H 93.89265636825863 101.1292196102674 206.46068585940645 H 0.0 **** 0.06
2924 H 93.13473645301309 102.73261300833559 206.30283820197772 H 0.0 **** 0.06
2925 H 94.71484095123077 102.57023974654095 207.10579308556436 H 0.0 **** 0.06
2926 C 246.09804987665422 132.86357884278422 238.0607513317114 C 0.0 **** -0.24
2927 H 246.94305506894227 133.54156178698193 238.18135781072905 H 0.0 **** 0.06
2928 H 245.37307657911967 133.04325466735378 238.85420131656048 H 0.0 **** 0.06
2929 H 246.44868192957296 131.83306883348232 238.11458301587797 H 0.0 **** 0.06
2930 H 245.62843944691429 133.03839830701725 237.09299063612815 H 0.0 **** 0.06
2931 C 204.04846960523207 18.11248977169103 101.74224309987659 C 0.0 **** -0.24
2932 H 203.50205234825341 18.92759090759037 101.26808396464097 H 0.0 **** 0.06
2933 H 203.97072396451418 17.21643717424584 101.12708871285093 H 0.0 **** 0.06
2934 H 203.62324083472936 17.915430907617036 102.72693842194934 H 0.0 **** 0.06
2935 H 205.09622301692167 18.391307187898207 101.84849371509148 H 0.0 **** 0.06
2936 C 118.87775742998264 197.42411147380125 83.21220659100831 C 0.0 **** -0.24
2937 H 119.8104225786216 197.97405040502628 83.0831195279643 H 0.0 **** 0.06
2938 H 118.11876931621029 197.8351110185208 82.5455305081353 H 0.0 **** 0.06
2939 H 118.54300261880945 197.51497723232492 84.24517086525978 H 0.0 **** 0.06
2940 H 119.04082369313008 196.37314512029576 82.97384618099971 H 0.0 **** 0.06
2941 C 102.27475757358337 6.51215559780033 65.30125277203504 C 0.0 **** -0.24
2942 H 102.51901176559434 7.450953711798292 65.79835292288041 H 0.0 **** 0.06
2943 H 101.40872167792543 6.06023186451003 65.78408745260742 H 0.0 **** 0.06
2944 H 103.12495543450237 5.833185650519368 65.36771312489324 H 0.0 **** 0.06
2945 H 102.04577055506664 6.70671578827816 64.25249118472942 H 0.0 **** 0.06
2946 C 178.8808720233169 108.15469791797852 148.25298791807276 C 0.0 **** -0.24
2947 H 179.27188771849484 107.81935321469552 149.21292500598642 H 0.0 **** 0.06
2948 H 179.07759530682472 107.39572623811176 147.49525609502368 H 0.0 **** 0.06
2949 H 179.36904776814475 109.08728927209242 147.9689467529669 H 0.0 **** 0.06
2950 H 177.8063754644142 108.31740313600778 148.33465628358354 H 0.0 **** 0.06
2951 C 26.998596470084834 5.405719845641528 124.85749648741262 C 0.0 **** -0.24
2952 H 26.48633851676574 4.499007997232951 124.53449805139272 H 0.0 **** 0.06
2953 H 27.907892435735874 5.537272241561453 124.27033774345293 H 0.0 **** 0.06
2954 H 27.256190616567608 5.320701612688168 125.91328563609835 H 0.0 **** 0.06
2955 H 26.34333158653851 6.264755885980179 124.71072595158756 H 0.0 **** 0.06
2956 C 174.95356284524868 197.62395116367912 185.60004394460663 C 0.0 **** -0.24
2957 H 174.27514036866248 197.7677684117821 184.75869674023122 H 0.0 **** 0.06
2958 H 175.91574412700888 198.08219495485065 185.37237670241802 H 0.0 **** 0.06
2959 H 175.0909134807379 196.55744933554502 185.77675901723592 H 0.0 **** 0.06
2960 H 174.53003514228575 198.0879215360706 186.49095378851405 H 0.0 **** 0.06
2961 C 4.361760202698605 70.16863064642266 122.56680017752979 C 0.0 **** -0.24
2962 H 3.8399749447486045 69.36503671568181 122.04645460510923 H 0.0 **** 0.06
2963 H 4.207096058003543 71.1065013507714 122.03385073525894 H 0.0 **** 0.06
2964 H 5.428321080692314 69.94324205786612 122.60534189038978 H 0.0 **** 0.06
2965 H 3.972185898746744 70.25780129101821 123.58058221562845 H 0.0 **** 0.06
2966 C 13.256722931181486 105.97487382505636 151.8074438391406 C 0.0 **** -0.24
2967 H 13.497634649021336 105.61557868737711 152.80742089257643 H 0.0 **** 0.06
2968 H 14.02673801336337 105.64834339950053 151.10801247742407 H 0.0 **** 0.06
2969 H 13.209064870232197 107.06345275161993 151.81459865330385 H 0.0 **** 0.06
2970 H 12.291669435011414 105.57083700565516 151.49933414955993 H 0.0 **** 0.06
2971 C 40.277831135538435 37.76825360066954 248.4056015080397 C 0.0 **** -0.24
2972 H 40.11550409279144 36.7669823776007 248.80455819452592 H 0.0 **** 0.06
2973 H 40.42934648771441 38.46606812581655 249.22986091339507 H 0.0 **** 0.06
2974 H 39.40724741987182 38.07434047867913 247.82545291766783 H 0.0 **** 0.06
2975 H 41.15945765821826 37.76594014050853 247.7649519255313 H 0.0 **** 0.06
2976 C 241.92345524368216 155.13194015965087 234.41893819115816 C 0.0 **** -0.24
2977 H 241.44862343890588 155.01790087424794 233.44489129331998 H 0.0 **** 0.06
2978 H 242.6725691798248 154.3511670601659 234.5518902512346 H 0.0 **** 0.06
2979 H 241.16981081876872 155.0495017597842 235.20255899692773 H 0.0 **** 0.06
2980 H 242.40156871498664 156.10976556957522 234.47674429000455 H 0.0 **** 0.06
2981 C 7.141411946063187 34.89140880226283 40.5026284264558 C 0.0 **** -0.24
2982 H 7.727396524793306 35.71754070245308 40.90657487736823 H 0.0 **** 0.06
2983 H 7.757972646883502 34.31037315360024 39.81607248843133 H 0.0 **** 0.06
2984 H 6.2770091260026675 35.287284286278094 39.9692768186778 H 0.0 **** 0.06
2985 H 6.804430899265384 34.25222866387638 41.31925386227894 H 0.0 **** 0.06
2986 C 171.48535716604925 240.91263434078473 235.4776622842191 C 0.0 **** -0.24
2987 H 171.02790736163925 241.07053232276257 236.45362358419797 H 0.0 **** 0.06
2988 H 172.37757910857434 240.29598225725593 235.58958989236143 H 0.0 **** 0.06
2989 H 171.76074644755576 241.87586572448555 235.04628005216975 H 0.0 **** 0.06
2990 H 170.77598158073175 240.41080841129423 234.81999247395 H 0.0 **** 0.06
2991 C 79.26561501849727 26.13662343016739 4.30330155017721 C 0.0 **** -0.24
2992 H 80.15403142158993 25.513020118941625 4.408300524374425 H 0.0 **** 0.06
2993 H 78.44985975093167 25.539575449413306 3.8960920001116506 H 0.0 **** 0.06
2994 H 79.48189420481026 26.965079518183586 3.629191479507867 H 0.0 **** 0.06
2995 H 78.97877375753018 26.52667526874265 5.279618209111732 H 0.0 **** 0.06
2996 C 91.81611305526988 92.01017179241492 88.66932117486564 C 0.0 **** -0.24
2997 H 90.87225633219086 92.26598782435903 89.15128094281712 H 0.0 **** 0.06
2998 H 91.62882428143149 91.31029800651368 87.8541542099646 H 0.0 **** 0.06
2999 H 92.48244248184454 91.55003764777732 89.39841803088908 H 0.0 **** 0.06
3000 H 92.27784300923406 92.9150380010363 88.27328560807618 H 0.0 **** 0.06
3001 C 35.691004380730035 0.5505275314143603 79.38205302548016 C 0.0 **** -0.24
3002 H 35.785271295695296 1.6074437111276012 79.13568644341774 H 0.0 **** 0.06
3003 H 35.933228549061326 -0.050257476340163976 78.50494618828199 H 0.0 **** 0.06
3004 H 34.66880683110685 0.34012907780304147 79.69590207354818 H 0.0 **** 0.06
3005 H 36.37717284903404 0.30384747651983446 80.19262033204396 H 0.0 **** 0.06
3006 C 62.54443574621919 187.1369841553929 188.09727398633726 C 0.0 **** -0.24
3007 H 63.593072974221684 186.88447444202149 188.25827209074856 H 0.0 **** 0.06
3008 H 62.15546645827362 187.64828404648006 188.97752047350195 H 0.0 **** 0.06
3009 H 61.9740974696125 186.22449658143918 187.9250118555176 H 0.0 **** 0.06
3010 H 62.45766489230647 187.78947636355517 187.2282818636063 H 0.0 **** 0.06
3011 C 70.1282613091987 215.8520728178188 183.02309841317975 C 0.0 **** -0.24
3012 H 69.71937235071411 216.6022083145289 182.34566270983055 H 0.0 **** 0.06
3013 H 69.92936262810645 216.14683776490375 184.0537305080661 H 0.0 **** 0.06
3014 H 71.2043568343557 215.77179704621426 182.8683347450863 H 0.0 **** 0.06
3015 H 69.6598370509621 214.88825936440486 182.8228412938219 H 0.0 **** 0.06
3016 C 94.40903631913869 146.30188727547883 141.75934719930842 C 0.0 **** -0.24
3017 H 94.20402989948698 147.37017437191557 141.8311428790453 H 0.0 **** 0.06
3018 H 95.34708755614733 146.14612672655176 141.22705396086133 H 0.0 **** 0.06
3019 H 93.5979746983192 145.8124792693711 141.2203115623808 H 0.0 **** 0.06
3020 H 94.48481720758616 145.87998057985402 142.7616248894686 H 0.0 **** 0.06
3021 C 139.3526546754101 133.3094851684754 34.482503575184865 C 0.0 **** -0.24
3022 H 139.8131362327809 133.93755993659204 33.71945678995664 H 0.0 **** 0.06
3023 H 140.03619663920497 133.2032461572638 35.32589390121423 H 0.0 **** 0.06
3024 H 139.13632801878563 132.3270916044238 34.063044126076946 H 0.0 **** 0.06
3025 H 138.42570900444113 133.77187289980836 34.82191465232367 H 0.0 **** 0.06
3026 C 94.81570969242705 224.3644652686316 94.15651247512707 C 0.0 **** -0.24
3027 H 94.46064324781315 224.14859242451854 95.16421645175299 H 0.0 **** 0.06
3028 H 95.17310615203505 225.39347437816303 94.11059300172158 H 0.0 **** 0.06
3029 H 93.99963979828064 224.22956053142838 93.44749259043894 H 0.0 **** 0.06
3030 H 95.63103671613538 223.68508184249845 93.90677345239271 H 0.0 **** 0.06
3031 C 205.8423573659589 147.45147297037337 9.445031255641226 C 0.0 **** -0.24
3032 H 205.458002519657 146.97902828329848 10.349104781730347 H 0.0 **** 0.06
3033 H 206.33531118533878 148.38729687417728 9.70601154260217 H 0.0 **** 0.06
3034 H 205.01606215057606 147.6536200362545 8.762287990542205 H 0.0 **** 0.06
3035 H 206.55714044362017 146.78531914111778 8.963066749023682 H 0.0 **** 0.06
3036 C 24.745538579073553 186.61832880953648 18.72650699669836 C 0.0 **** -0.24
3037 H 24.166979838125286 185.69611802742244 18.670590738874438 H 0.0 **** 0.06
3038 H 25.15991584047299 186.7261615012534 19.729664103066597 H 0.0 **** 0.06
3039 H 24.097980777529102 187.4671051514676 18.506881900293337 H 0.0 **** 0.06
3040 H 25.556425792806436 186.58194486817084 17.99946662772956 H 0.0 **** 0.06
3041 C 155.8750447623801 211.48491139849074 67.52052996613551 C 0.0 **** -0.24
3042 H 155.8368577105461 210.84524170188865 68.40193906052826 H 0.0 **** 0.06
3043 H 154.98419532214334 211.32242858332518 66.91403167575493 H 0.0 **** 0.06
3044 H 156.76300469504764 211.24495728010285 66.9352516110271 H 0.0 **** 0.06
3045 H 155.91707557716484 212.52886337286398 67.832195269061 H 0.0 **** 0.06
3046 C 119.20568313092056 204.83070116563619 243.72967502996505 C 0.0 **** -0.24
3047 H 118.56360397226888 205.0483628510523 242.87633376695163 H 0.0 **** 0.06
3048 H 119.90400778650644 204.03678001452022 243.46549810647272 H 0.0 **** 0.06
3049 H 118.59281263845205 204.51121350776805 244.57285352242437 H 0.0 **** 0.06
3050 H 119.76108730286768 205.72814772581847 244.00480311075063 H 0.0 **** 0.06
3051 C 173.69110544057676 204.52398818098962 186.60996204377307 C 0.0 **** -0.24
3052 H 173.0210626802548 204.50059439740707 185.75023301407674 H 0.0 **** 0.06
3053 H 174.5359878255332 205.1772039869106 186.39404440636906 H 0.0 **** 0.06
3054 H 174.05298996631527 203.5159543965817 186.81547618079304 H 0.0 **** 0.06
3055 H 173.151775283326 204.9007164439573 187.47909055396187 H 0.0 **** 0.06
3056 C 116.42844913258153 227.65592771332953 11.312377678628522 C 0.0 **** -0.24
3057 H 116.90277320884226 228.4153819865388 10.69065229831456 H 0.0 **** 0.06
3058 H 117.11978820110875 226.82663841082538 11.464019096506462 H 0.0 **** 0.06
3059 H 115.52829634589861 227.29242842137356 10.81712946783938 H 0.0 **** 0.06
3060 H 116.16320277444117 228.08941654918698 12.276329109759772 H 0.0 **** 0.06
3061 C 8.708877141727925 54.759780682080105 90.5923663065648 C 0.0 **** -0.24
3062 H 8.152569562295156 53.82562493730293 90.52033518179036 H 0.0 **** 0.06
3063 H 9.761320242006406 54.542252926032006 90.7741429938938 H 0.0 **** 0.06
3064 H 8.313119322496135 55.3554576053094 91.41568965284145 H 0.0 **** 0.06
3065 H 8.608010453484468 55.31524120837847 89.66050683542585 H 0.0 **** 0.06
3066 C 197.98798058990798 195.8373847727982 74.77186664529572 C 0.0 **** -0.24
3067 H 197.92183140896188 196.51809700342585 73.92267837322791 H 0.0 **** 0.06
3068 H 197.73669675270477 196.37373317580756 75.68686631314827 H 0.0 **** 0.06
3069 H 199.00259130584385 195.4469671333548 74.84545824080797 H 0.0 **** 0.06
3070 H 197.2903222629175 195.01219819006707 74.63083641403219 H 0.0 **** 0.06
3071 C 234.83968357494592 202.28036449751238 164.74549007997484 C 0.0 **** -0.24
3072 H 234.160157374457 201.42812658755628 164.74729463133585 H 0.0 **** 0.06
3073 H 234.756288648758 202.80866477790835 163.79547025183717 H 0.0 **** 0.06
3074 H 235.86246318108113 201.92936946167046 164.8787151551114 H 0.0 **** 0.06
3075 H 234.577713305745 202.95456268684413 165.5605109030628 H 0.0 **** 0.06
3076 C 205.31450049577217 11.673628130104262 102.83721857730902 C 0.0 **** -0.24
3077 H 204.4243958082759 11.29217684038531 102.33613761036838 H 0.0 **** 0.06
3078 H 205.17570450165232 12.729259668286502 103.07172721610513 H 0.0 **** 0.06
3079 H 206.17816570763767 11.557203791328007 102.18272079912597 H 0.0 **** 0.06
3080 H 205.47920908255105 11.115086677814247 103.75861322468242 H 0.0 **** 0.06
3081 C 91.28677073832137 53.613556479955804 238.143086832854 C 0.0 **** -0.24
3082 H 91.24812813424575 54.45767878285071 238.83146670909358 H 0.0 **** 0.06
3083 H 92.00784476196333 52.88192096367666 238.5073220465321 H 0.0 **** 0.06
3084 H 91.58936150030863 53.96329178349552 237.15615744563658 H 0.0 **** 0.06
3085 H 90.30146215213136 53.15292993705114 238.07923750151568 H 0.0 **** 0.06
3086 C 156.39673205670002 105.97553470129245 202.68984092977098 C 0.0 **** -0.24
3087 H 156.30182370543199 105.84778154328964 201.61095302249691 H 0.0 **** 0.06
3088 H 155.41014818526247 106.13215822267779 203.12513152116685 H 0.0 **** 0.06
3089 H 157.0285915785613 106.8389514652199 202.89860301334932 H 0.0 **** 0.06
3090 H 156.84807078015342 105.08278070171227 203.12225302262402 H 0.0 **** 0.06
3091 C 136.96476548899858 102.8912467597089 220.01435721782093 C 0.0 **** -0.24
3092 H 136.18812964592283 102.94823147087143 219.25167964580817 H 0.0 **** 0.06
3093 H 137.73762190249354 102.1914463725308 219.6928529821139 H 0.0 **** 0.06
3094 H 136.5287188153279 102.54632841232225 220.95198838335435 H 0.0 **** 0.06
3095 H 137.40524385226084 103.87788932844441 220.15881421676784 H 0.0 **** 0.06
3096 C 130.8036852562754 175.40492226835653 209.91729553599237 C 0.0 **** -0.24
3097 H 130.38386555021896 176.4088482036479 209.850807160046 H 0.0 **** 0.06
3098 H 131.33722962720643 175.17298117162534 208.99538593972756 H 0.0 **** 0.06
3099 H 129.99871843398378 174.6835118563959 210.06327847090319 H 0.0 **** 0.06
3100 H 131.49308849714245 175.35553233944148 210.75924646140479 H 0.0 **** 0.06
3101 C 83.64432136693361 88.80569644399793 104.31964067974886 C 0.0 **** -0.24
3102 H 82.68776758591932 88.90161702301444 103.806336022198 H 0.0 **** 0.06
3103 H 83.94239730969338 87.75699617945776 104.33667195781496 H 0.0 **** 0.06
3104 H 83.54782180824012 89.17281323918624 105.34080993650744 H 0.0 **** 0.06
3105 H 84.39902625074956 89.38963293519302 103.79302860288695 H 0.0 **** 0.06
3106 C 132.9213459224714 176.64321908256267 130.31570821590518 C 0.0 **** -0.24
3107 H 133.71668089549377 176.5166193101311 131.04997066469318 H 0.0 **** 0.06
3108 H 132.0123370938457 176.97550098264273 130.81918143046036 H 0.0 **** 0.06
3109 H 132.73447510583202 175.69282256726763 129.81617710897433 H 0.0 **** 0.06
3110 H 133.22171468747035 177.38833045732872 129.5791804084547 H 0.0 **** 0.06
3111 C 234.00296961320808 224.89402007828673 188.72917204223546 C 0.0 **** -0.24
3112 H 235.05171171226175 224.6012183767863 188.75474007406996 H 0.0 **** 0.06
3113 H 233.8072470461163 225.46308835826252 187.819278335532 H 0.0 **** 0.06
3114 H 233.77526604475574 225.50968282423227 189.59926458659072 H 0.0 **** 0.06
3115 H 233.37627477379107 224.0022146028168 188.74138442509178 H 0.0 **** 0.06
3116 C 137.10223817599754 87.7098366566864 94.06226405221605 C 0.0 **** -0.24
3117 H 136.95961689504503 88.49421598642621 94.80642856273568 H 0.0 **** 0.06
3118 H 136.99279559220494 88.13189576603426 93.0637857159092 H 0.0 **** 0.06
3119 H 136.35627686872573 86.92863077446506 94.21146081972248 H 0.0 **** 0.06
3120 H 138.10030199060046 87.28465264286964 94.17084467328291 H 0.0 **** 0.06
3121 C 32.14894836414267 125.73051714738668 90.55368009850437 C 0.0 **** -0.24
3122 H 33.14160570268534 125.28306436636214 90.50333145214418 H 0.0 **** 0.06
3123 H 31.818753636232373 125.76613871606665 91.59213237000597 H 0.0 **** 0.06
3124 H 31.450606145729765 125.12957867252291 89.97048487177673 H 0.0 **** 0.06
3125 H 32.184339865837956 126.74114328687261 90.14769141585217 H 0.0 **** 0.06
3126 C 138.61952490818362 32.607055182513164 116.90803768765798 C 0.0 **** -0.24
3127 H 138.56494807694227 33.68993532435394 116.79644227308742 H 0.0 **** 0.06
3128 H 139.58698412954394 32.333545175397916 117.32968980098394 H 0.0 **** 0.06
3129 H 138.5017467388975 32.13505400472704 115.93235343285676 H 0.0 **** 0.06
3130 H 137.825054183663 32.27010548379518 117.57301492477924 H 0.0 **** 0.06
3131 C 51.69944168225692 144.6390641679291 23.369487888966688 C 0.0 **** -0.24
3132 H 51.76077482429841 143.59166537835856 23.07346323864219 H 0.0 **** 0.06
3133 H 51.52824501433162 144.7027160686992 24.445022976850822 H 0.0 **** 0.06
3134 H 50.87556072119659 145.1181770023972 22.841131364510787 H 0.0 **** 0.06
3135 H 52.633541451914056 145.14185322637204 23.119905542847746 H 0.0 **** 0.06
3136 C 106.33888340389532 100.47783615869483 117.53279486329205 C 0.0 **** -0.24
3137 H 107.07208223716384 101.27173376942133 117.67028162819577 H 0.0 **** 0.06
3138 H 105.69889172337068 100.4183864360325 118.41415458898402 H 0.0 **** 0.06
3139 H 106.85406815262593 99.52742146258709 117.39380871882733 H 0.0 **** 0.06
3140 H 105.72924781357435 100.6935619108784 116.65503098765942 H 0.0 **** 0.06
3141 C 9.797296914541533 176.56805345401057 92.6487927699259 C 0.0 **** -0.24
3142 H 9.538567831802396 176.20682243369697 91.65348729904647 H 0.0 **** 0.06
3143 H 9.069924096392327 177.31600816234953 92.96398335403384 H 0.0 **** 0.06
3144 H 10.791574770289543 177.01568268370988 92.6256367574122 H 0.0 **** 0.06
3145 H 9.7903873235081 175.73417562775165 93.35028303464821 H 0.0 **** 0.06
3146 C 24.580339864937727 75.68365211308935 139.9186825058848 C 0.0 **** -0.24
3147 H 24.934320750720403 75.86014987098335 140.9347182580285 H 0.0 **** 0.06
3148 H 25.086790089119347 76.36404707236187 139.23389681576785 H 0.0 **** 0.06
3149 H 23.505420216104184 75.85397182697366 139.87361037491394 H 0.0 **** 0.06
3150 H 24.796682512979473 74.65337179860055 139.63289251422648 H 0.0 **** 0.06
3151 C 248.7212143600861 76.28753185064608 56.42857739270872 C 0.0 **** -0.24
3152 H 248.0953800602502 76.06566665057707 55.5648668975891 H 0.0 **** 0.06
3153 H 248.60701695124243 77.33760823656095 56.69969381668872 H 0.0 **** 0.06
3154 H 249.7641946359766 76.08678933569902 56.183895651249344 H 0.0 **** 0.06
3155 H 248.41715732914025 75.66036067281073 57.26667953786804 H 0.0 **** 0.06
3156 C 82.2588556126293 206.81509833572133 9.354433854249947 C 0.0 **** -0.24
3157 H 81.49851454478409 207.41558019177918 9.855308673402448 H 0.0 **** 0.06
3158 H 81.91470259692923 205.78318421923294 9.277488823222 H 0.0 **** 0.06
3159 H 83.18396806161189 206.84770270995617 9.930451637236757 H 0.0 **** 0.06
3160 H 82.43706036057335 207.21503944433866 8.357011310141246 H 0.0 **** 0.06
3161 C 193.51557462234834 171.73280682826632 179.2581558614649 C 0.0 **** -0.24
3162 H 194.39893870062699 171.27535796945816 179.70426573664548 H 0.0 **** 0.06
3163 H 192.9028825787658 170.96105096606647 178.7932355363934 H 0.0 **** 0.06
3164 H 193.82398458449376 172.45572404555517 178.50210786480926 H 0.0 **** 0.06
3165 H 192.9392666647689 172.23973188525616 180.0320665107559 H 0.0 **** 0.06
3166 C 76.73570582798848 128.40650746365844 31.82659583258024 C 0.0 **** -0.24
3167 H 75.89317784388052 129.09792093873764 31.839958891818327 H 0.0 **** 0.06
3168 H 77.38624976317607 128.60911754027106 32.67784334175437 H 0.0 **** 0.06
3169 H 77.29708578233638 128.53731392298914 30.901143623054878 H 0.0 **** 0.06
3170 H 76.36712187973944 127.38281915206713 31.885694689531164 H 0.0 **** 0.06
3171 C 77.75420608364178 60.91397572933505 125.1654012126229 C 0.0 **** -0.24
3172 H 77.83123952854771 60.63239345278049 124.11500183932745 H 0.0 **** 0.06
3173 H 77.06761596242501 61.75387767866107 125.26746139972536 H 0.0 **** 0.06
3174 H 78.73865659436814 61.20054558200468 125.53647194558394 H 0.0 **** 0.06
3175 H 77.38103706750016 60.067317943194126 125.74129186546332 H 0.0 **** 0.06
3176 C 127.84038223104179 73.64433242686667 145.47750266525213 C 0.0 **** -0.24
3177 H 127.35813265558744 74.61162981102302 145.6159319963518 H 0.0 **** 0.06
3178 H 127.77547589585944 73.07006040621008 146.40109964044146 H 0.0 **** 0.06
3179 H 128.8877713713013 73.79495217564622 145.21464670465082 H 0.0 **** 0.06
3180 H 127.33938402577937 73.10145154628412 144.67489271366088 H 0.0 **** 0.06
3181 C 218.44276323773357 89.31818055085537 66.20194060492301 C 0.0 **** -0.24
3182 H 218.93000872860026 89.51443590201717 67.15689674816534 H 0.0 **** 0.06
3183 H 217.6598062679066 90.0587149918484 66.03482775023639 H 0.0 **** 0.06
3184 H 218.00284093615556 88.32140718203041 66.21679930969134 H 0.0 **** 0.06
3185 H 219.17888533056038 89.37807692974476 65.40010691879874 H 0.0 **** 0.06
3186 C 59.83416433256426 137.8236773786027 184.3912755691351 C 0.0 **** -0.24
3187 H 60.12635056968273 138.7636755359642 184.86041973186818 H 0.0 **** 0.06
3188 H 59.70972563947359 137.05868350383392 185.15747981673448 H 0.0 **** 0.06
3189 H 60.608547832113175 137.5133978524788 183.68987313225645 H 0.0 **** 0.06
3190 H 58.89464124850994 137.96163560450069 183.85731259352914 H 0.0 **** 0.06
3191 C 82.69786325642536 132.70006220902349 27.703480097088658 C 0.0 **** -0.24
3192 H 83.0814016061947 133.7191989306654 27.75597057000951 H 0.0 **** 0.06
3193 H 81.64568162890947 132.72287812241512 27.41987857166069 H 0.0 **** 0.06
3194 H 82.8016754481603 132.22271733138814 28.678416749269132 H 0.0 **** 0.06
3195 H 83.2630840437015 132.1367732110619 26.961417748719043 H 0.0 **** 0.06
3196 C 123.48936800729979 23.339134437584974 5.553018702264367 C 0.0 **** -0.24
3197 H 124.38674390491198 23.42618743784118 4.940360687017659 H 0.0 **** 0.06
3198 H 123.7450006012055 23.509400636432915 6.599192193841546 H 0.0 **** 0.06
3199 H 123.06768795446831 22.34011288637319 5.440153972953681 H 0.0 **** 0.06
3200 H 122.75731467756503 24.080028392425135 5.233274071297387 H 0.0 **** 0.06
3201 C 110.06175901314958 149.47626103591006 240.96626198825027 C 0.0 **** -0.24
3202 H 109.1091595950843 149.9484571942612 241.20666728527107 H 0.0 **** 0.06
3203 H 109.90849159607492 148.7191822556712 240.1968379218348 H 0.0 **** 0.06
3204 H 110.47132895135863 149.0079266896314 241.8617618395334 H 0.0 **** 0.06
3205 H 110.75878826836848 150.2303844227631 240.60058220279723 H 0.0 **** 0.06
3206 C 80.85555888816592 145.3247121832462 183.34604659397849 C 0.0 **** -0.24
3207 H 80.39267435255678 144.7369585233723 184.1391273696927 H 0.0 **** 0.06
3208 H 81.31188496303147 144.65340478852497 182.61744623696313 H 0.0 **** 0.06
3209 H 81.62040870929931 145.97241767457157 183.77286259990342 H 0.0 **** 0.06
3210 H 80.09556705630203 145.932930923238 182.85526868943958 H 0.0 **** 0.06
3211 C 137.92303372484827 6.279474808560522 181.92214851838284 C 0.0 **** -0.24
3212 H 138.2123289793233 7.304347743506511 182.156166250614 H 0.0 **** 0.06
3213 H 137.41835804180377 5.839102424060911 182.78235325656595 H 0.0 **** 0.06
3214 H 138.81398452492752 5.697145853507536 181.6857754329377 H 0.0 **** 0.06
3215 H 137.24945818357074 6.278180573502539 181.0654175920008 H 0.0 **** 0.06
3216 C 222.59010034865986 43.63110899144438 238.74795813769583 C 0.0 **** -0.24
3217 H 222.89652525085876 42.74900660061478 239.31124379527688 H 0.0 **** 0.06
3218 H 221.889458936028 44.21658732141569 239.34351024091922 H 0.0 **** 0.06
3219 H 222.10951714276663 43.32160269188569 237.8206889281351 H 0.0 **** 0.06
3220 H 223.4668750505786 44.237285737302926 238.51864732158663 H 0.0 **** 0.06
3221 C 120.19405094978785 170.37871522406886 203.8415625490271 C 0.0 **** -0.24
3222 H 120.9707106545813 170.60102188345638 204.57364521219029 H 0.0 **** 0.06
3223 H 120.65549632606826 170.11749849794455 202.88955438217778 H 0.0 **** 0.06
3224 H 119.55760357727081 171.25442143488036 203.71038727142073 H 0.0 **** 0.06
3225 H 119.59195983112775 169.54162472960238 204.19578192149265 H 0.0 **** 0.06
3226 C 203.8062441597615 105.49673081655496 16.435606281670204 C 0.0 **** -0.24
3227 H 204.24400126670378 104.78644804248583 15.734238571606653 H 0.0 **** 0.06
3228 H 204.5346651340505 105.7383441226365 17.210049610628204 H 0.0 **** 0.06
3229 H 202.92070186118525 105.05616035464513 16.89298694212806 H 0.0 **** 0.06
3230 H 203.52612416708916 106.40665217513163 15.903341783692127 H 0.0 **** 0.06
3231 C 101.70259033994984 197.72531169089413 238.23241314636894 C 0.0 **** -0.24
3232 H 102.26502075614243 197.55503761023667 237.31412651463665 H 0.0 **** 0.06
3233 H 101.69390051313204 198.79134294139442 238.45951318738213 H 0.0 **** 0.06
3234 H 102.17260616476162 197.1821622799216 239.0525615569556 H 0.0 **** 0.06
3235 H 100.6794287156111 197.37233031856266 238.1018680807116 H 0.0 **** 0.06
3236 C 181.97883520680378 46.792275297395946 66.93742547706299 C 0.0 **** -0.24
3237 H 181.45711952520227 45.91932030178404 67.32887903259177 H 0.0 **** 0.06
3238 H 181.2931639627155 47.38262973222811 66.33003174119432 H 0.0 **** 0.06
3239 H 182.82018316993995 46.46733927235195 66.32398373593853 H 0.0 **** 0.06
3240 H 182.34592105691 47.39823033724093 67.7661727508146 H 0.0 **** 0.06
3241 C 40.937679211053606 143.54796261985382 179.3113285221878 C 0.0 **** -0.24
3242 H 41.30410545512645 144.54975560276262 179.085786503532 H 0.0 **** 0.06
3243 H 41.62066680163929 142.80919353105514 178.8908469377103 H 0.0 **** 0.06
3244 H 39.94773733013476 143.41662087445383 178.87629177466596 H 0.0 **** 0.06
3245 H 40.88061360472986 143.41624584377465 180.391932417495 H 0.0 **** 0.06
3246 C 106.30300612648406 67.4720905414269 65.42320071514973 C 0.0 **** -0.24
3247 H 105.94572324447677 66.5003948334718 65.08167038537039 H 0.0 **** 0.06
3248 H 105.58739394824659 67.89634110330167 66.12599742815388 H 0.0 **** 0.06
3249 H 106.4117520740916 68.13873540390966 64.56710053091709 H 0.0 **** 0.06
3250 H 107.26861314182415 67.35090480944103 65.914438623108 H 0.0 **** 0.06
3251 C 53.94725850870955 21.151222111724422 236.32429990810857 C 0.0 **** -0.24
3252 H 54.37863703310873 20.752244021178143 235.40614380877258 H 0.0 **** 0.06
3253 H 53.201821104032575 21.90722475437167 236.07587555917138 H 0.0 **** 0.06
3254 H 54.73479627620131 21.60185414209562 236.92882502189224 H 0.0 **** 0.06
3255 H 53.47501751118901 20.344578660390567 236.88450018118994 H 0.0 **** 0.06
3256 C 125.98414032749957 22.052311500092088 101.77420109913325 C 0.0 **** -0.24
3257 H 125.60503053403255 21.39966590588503 102.56006053539917 H 0.0 **** 0.06
3258 H 127.04461966913141 22.24142653692681 101.94057608965056 H 0.0 **** 0.06
3259 H 125.43916355002347 22.996903428411642 101.79261263160109 H 0.0 **** 0.06
3260 H 125.84692896725204 21.572872702373346 100.80519746313817 H 0.0 **** 0.06
3261 C 133.86160696898963 131.15138065493952 8.747720118017725 C 0.0 **** -0.24
3262 H 134.76670440306174 130.68631418377436 9.138053794267336 H 0.0 **** 0.06
3263 H 133.5196078323302 130.60077554307398 7.870608275929925 H 0.0 **** 0.06
3264 H 134.07545194903435 132.18301842878873 8.468207332205083 H 0.0 **** 0.06
3265 H 133.08575524904816 131.1360609935913 9.512831861864385 H 0.0 **** 0.06
3266 C 115.97623013412385 18.717050316004304 64.15912072225208 C 0.0 **** -0.24
3267 H 116.28152767077455 18.004839956048272 63.39264868450027 H 0.0 **** 0.06
3268 H 116.77781023313798 19.437314443270864 64.3244401286739 H 0.0 **** 0.06
3269 H 115.76965032315775 18.183810306943556 65.08768114280196 H 0.0 **** 0.06
3270 H 115.07805621835249 19.24032996173304 63.832637048888046 H 0.0 **** 0.06
3271 C 56.58095912121047 83.64158002812698 215.1606262628242 C 0.0 **** -0.24
3272 H 55.99245425809889 84.53723920854142 215.35899265524517 H 0.0 **** 0.06
3273 H 56.38234222390008 83.2929005423741 214.1473402665835 H 0.0 **** 0.06
3274 H 56.308810158896364 82.8629983257211 215.8736704758504 H 0.0 **** 0.06
3275 H 57.64123783529425 83.87410357308269 215.2639627359431 H 0.0 **** 0.06
3276 C 244.24178549074617 49.866001411252014 132.21048707174293 C 0.0 **** -0.24
3277 H 245.1389303930937 49.33091138394663 131.89902879710687 H 0.0 **** 0.06
3278 H 243.72589062684648 49.29380835421004 132.98112067947466 H 0.0 **** 0.06
3279 H 243.5822648745998 49.998923196808136 131.3519295949471 H 0.0 **** 0.06
3280 H 244.52137963673908 50.84184126164024 132.6078537427825 H 0.0 **** 0.06
3281 C 53.9117534413175 240.5268450108807 50.626874557158516 C 0.0 **** -0.24
3282 H 54.56095484521404 241.04142124154617 49.91874575169798 H 0.0 **** 0.06
3283 H 53.83967134219756 241.11023612563977 51.54411200472332 H 0.0 **** 0.06
3284 H 54.32572895363825 239.54357951649462 50.85152053900099 H 0.0 **** 0.06
3285 H 52.91910348723664 240.4105465008234 50.19011454384187 H 0.0 **** 0.06
3286 C 128.74777971547547 170.52716047442877 14.355965893251522 C 0.0 **** -0.24
3287 H 127.86658310968062 169.99302634968913 14.710583775626759 H 0.0 **** 0.06
3288 H 129.37889052974603 170.7904883399146 15.204888826425105 H 0.0 **** 0.06
3289 H 128.43741960844784 171.4347165623275 13.838179141622874 H 0.0 **** 0.06
3290 H 129.30689327287232 169.89151726527027 13.67022884613445 H 0.0 **** 0.06
3291 C 217.2687421027558 165.6342879166058 155.374288817437 C 0.0 **** -0.24
3292 H 216.53482700005694 166.01113316139325 156.0882334053096 H 0.0 **** 0.06
3293 H 218.2711213879702 165.76282125692876 155.78417115372486 H 0.0 **** 0.06
3294 H 217.18357743111383 166.18877678671296 154.43988438788918 H 0.0 **** 0.06
3295 H 217.0849519679881 164.57678775273726 155.1877220812506 H 0.0 **** 0.06
3296 C 204.699087601833 165.39646165523496 182.78350085446448 C 0.0 **** -0.24
3297 H 204.46646004296187 165.9810238467778 183.67284500554905 H 0.0 **** 0.06
3298 H 204.8996863635952 166.0685914336184 181.949554057216 H 0.0 **** 0.06
3299 H 203.85264733589403 164.75500788663146 182.53790462210497 H 0.0 **** 0.06
3300 H 205.57783207343937 164.78027651584404 182.9735339977817 H 0.0 **** 0.06
3301 C 178.54484380880768 55.9197530459102 2.649349925061827 C 0.0 **** -0.24
3302 H 178.80328046273644 56.971253475206424 2.7707826358512477 H 0.0 **** 0.06
3303 H 178.90417654643863 55.56675633905081 1.6829923967547558 H 0.0 **** 0.06
3304 H 177.46191468675738 55.80380854385453 2.6999657755917923 H 0.0 **** 0.06
3305 H 179.0097228729182 55.33788875277298 3.4457656315200325 H 0.0 **** 0.06
3306 C 157.64579027594863 119.59550609621593 191.81070924759666 C 0.0 **** -0.24
3307 H 157.5380787152771 118.89439840067203 192.63883230377274 H 0.0 **** 0.06
3308 H 156.71821266715926 120.1529064751494 191.6840239802504 H 0.0 **** 0.06
3309 H 157.86845751278656 119.04572922061143 190.8967583471728 H 0.0 **** 0.06
3310 H 158.45982343099246 120.28803264147766 192.02466853078477 H 0.0 **** 0.06
3311 C 47.7924900657555 11.298086702845922 128.00189229676513 C 0.0 **** -0.24
3312 H 47.58193891537002 10.659712613376314 128.86026535635122 H 0.0 **** 0.06
3313 H 46.8538616362287 11.641654375441277 127.56606262416696 H 0.0 **** 0.06
3314 H 48.3531513225097 10.731129723810994 127.25811590782789 H 0.0 **** 0.06
3315 H 48.380693058695655 12.156525897083753 128.324047452146 H 0.0 **** 0.06
3316 C 45.76265108916975 88.8815059467683 190.9529538325329 C 0.0 **** -0.24
3317 H 46.168529778217106 89.69611160454036 190.3539624540498 H 0.0 **** 0.06
3318 H 46.57330789528872 88.37938833534574 191.4799936847931 H 0.0 **** 0.06
3319 H 45.255447548558166 88.16963645400381 190.30193082203027 H 0.0 **** 0.06
3320 H 45.0522780537225 89.28272524043399 191.67666220626052 H 0.0 **** 0.06
3321 C 76.03042692727504 42.51344887753051 211.90854371877165 C 0.0 **** -0.24
3322 H 75.39785404712114 41.65957756927109 211.66683541307427 H 0.0 **** 0.06
3323 H 76.98406717374831 42.419054021595926 211.3889338047089 H 0.0 **** 0.06
3324 H 76.20387243466323 42.54404273894555 212.98416132712433 H 0.0 **** 0.06
3325 H 75.53483860728818 43.43307344395707 211.5944235803913 H 0.0 **** 0.06
3326 C 75.4775267733065 187.8208632608533 151.6766792728853 C 0.0 **** -0.24
3327 H 76.02608005438029 188.63173517763894 151.19696935454016 H 0.0 **** 0.06
3328 H 76.16266599330626 187.2279787850033 152.28394596234574 H 0.0 **** 0.06
3329 H 75.02678542375136 187.18570402382954 150.91375034181567 H 0.0 **** 0.06
3330 H 74.69547895666253 188.23761713573427 152.3119548010299 H 0.0 **** 0.06
3331 C 16.717644057062984 242.02074096032584 145.9934292178311 C 0.0 **** -0.24
3332 H 17.64947014752373 242.56587265719503 146.1417570071852 H 0.0 **** 0.06
3333 H 16.389049575923295 242.13603786830396 144.96071006149955 H 0.0 **** 0.06
3334 H 15.95475062439138 242.41654480709298 146.66407852826563 H 0.0 **** 0.06
3335 H 16.87735041961895 240.9634479896661 146.2081057983644 H 0.0 **** 0.06
3336 C 216.32764671708017 160.79635166379362 238.53628122830762 C 0.0 **** -0.24
3337 H 215.5125208668554 161.2577424546957 239.09382759953792 H 0.0 **** 0.06
3338 H 216.37805284057367 159.73546868262898 238.77914555519277 H 0.0 **** 0.06
3339 H 217.2682069181613 161.2770752347636 238.80606805101507 H 0.0 **** 0.06
3340 H 216.15043780819673 160.9172663457028 237.46767175339411 H 0.0 **** 0.06
3341 C 127.61404612492149 126.49038225406906 189.15230281515983 C 0.0 **** -0.24
3342 H 128.39300621035935 125.76373754714297 188.92002446813638 H 0.0 **** 0.06
3343 H 127.16681350323995 126.85132691180604 188.22562136271603 H 0.0 **** 0.06
3344 H 128.05081752426653 127.32871411972616 189.6958357079149 H 0.0 **** 0.06
3345 H 126.84826928154592 126.0185158883088 189.76631381537726 H 0.0 **** 0.06
3346 C 143.8160678334879 170.03663070484006 163.72289191004424 C 0.0 **** -0.24
3347 H 143.62526483164433 170.8772576998385 164.3895770180461 H 0.0 **** 0.06
3348 H 143.34099656666123 169.14069204707386 164.1230603573338 H 0.0 **** 0.06
3349 H 144.89095013303356 169.87409583354219 163.64334929929078 H 0.0 **** 0.06
3350 H 143.40743758569576 170.25555827862755 162.7368804508946 H 0.0 **** 0.06
3351 C 243.60948834899273 68.23184947480243 136.44678819742194 C 0.0 **** -0.24
3352 H 242.7671891915587 68.75464438211955 135.99353420187273 H 0.0 **** 0.06
3353 H 244.5343240780125 68.54814669149951 135.96404135167265 H 0.0 **** 0.06
3354 H 243.48130313325925 67.15722841402473 136.31951019925575 H 0.0 **** 0.06
3355 H 243.65505310568625 68.46864351326647 137.50944053863662 H 0.0 **** 0.06
3356 C 16.187998912457175 109.0075344536254 23.40875558579245 C 0.0 **** -0.24
3357 H 16.79276456953241 108.58213683733061 24.20913357737203 H 0.0 **** 0.06
3358 H 15.212821274941945 108.52103229232131 23.39229989752033 H 0.0 **** 0.06
3359 H 16.688492686487535 108.85244920397685 22.45345295978217 H 0.0 **** 0.06
3360 H 16.0575017368497 110.07615491386167 23.580526863648345 H 0.0 **** 0.06
3361 C 56.37563539628843 107.98446036171649 240.37396966215329 C 0.0 **** -0.24
3362 H 56.89805996939765 108.93678691598265 240.46618284438816 H 0.0 **** 0.06
3363 H 57.10275174200183 107.17335089688808 240.3428437937092 H 0.0 **** 0.06
3364 H 55.78668156529068 107.98101044221173 239.45759908342293 H 0.0 **** 0.06
3365 H 55.715441701717936 107.84961615340913 241.23077004416035 H 0.0 **** 0.06
3366 C 73.91504754918591 119.63280425895309 22.421148624982493 C 0.0 **** -0.24
3367 H 74.96572279871549 119.68318873705263 22.13583390208956 H 0.0 **** 0.06
3368 H 73.31537275978039 119.36118484111788 21.55167716473906 H 0.0 **** 0.06
3369 H 73.59369072873267 120.60394565018882 22.79569868480823 H 0.0 **** 0.06
3370 H 73.78622378980455 118.88140349332147 23.201076769722363 H 0.0 **** 0.06
3371 C 244.41521099182063 114.10724042811728 72.61288698518126 C 0.0 **** -0.24
3372 H 244.8083177319577 114.55438709638602 71.70006689711286 H 0.0 **** 0.06
3373 H 243.92508165754765 114.87531280806073 73.21149422511806 H 0.0 **** 0.06
3374 H 245.23268039838018 113.6681118558626 73.1844527576504 H 0.0 **** 0.06
3375 H 243.693731421939 113.33113376480972 72.3565000678195 H 0.0 **** 0.06
3376 C 217.48237769429903 224.40138331257987 188.0974422528513 C 0.0 **** -0.24
3377 H 216.5906076580817 224.59701146186427 187.50193960868899 H 0.0 **** 0.06
3378 H 217.35859346831825 223.46523207663034 188.64034729221504 H 0.0 **** 0.06
3379 H 217.63159400320905 225.21625232113178 188.80616544678458 H 0.0 **** 0.06
3380 H 218.34878082234934 224.32853763699228 187.4396598408595 H 0.0 **** 0.06
3381 C 139.36091491639465 9.905559224400463 189.84587245416043 C 0.0 **** -0.24
3382 H 140.19887889388806 9.892153873493953 190.5426860850505 H 0.0 **** 0.06
3383 H 139.67543121800824 9.482183165489502 188.89151728642747 H 0.0 **** 0.06
3384 H 139.0295712771982 10.933851694897129 189.6950527782547 H 0.0 **** 0.06
3385 H 138.54059804122357 9.315255086892762 190.2525391549093 H 0.0 **** 0.06
3386 C 216.96722317353348 74.31299641578994 143.87248431823815 C 0.0 **** -0.24
3387 H 217.25608291599724 74.89710153651416 144.74672618072074 H 0.0 **** 0.06
3388 H 216.72945839929667 74.98566511431798 143.04829544112712 H 0.0 **** 0.06
3389 H 216.0913921735517 73.70864433597015 144.11242433068273 H 0.0 **** 0.06
3390 H 217.7907586547789 73.6604609644211 143.584374349035 H 0.0 **** 0.06
3391 C 42.54735555708723 220.30304349109298 244.79326802224733 C 0.0 **** -0.24
3392 H 42.78081782049102 220.49803569317578 245.8403315299706 H 0.0 **** 0.06
3393 H 41.46591129041869 220.3030783141439 244.6560679191249 H 0.0 **** 0.06
3394 H 42.95106570027619 219.33209393536566 244.50689825085044 H 0.0 **** 0.06
3395 H 42.993683045173924 221.07985503851575 244.1715018497399 H 0.0 **** 0.06
3396 C 115.09246523565159 115.25358874091029 212.25851007840268 C 0.0 **** -0.24
3397 H 115.99077678370273 115.72295673423918 212.65747699731358 H 0.0 **** 0.06
3398 H 114.5191857820237 114.81356016837532 213.07445498576516 H 0.0 **** 0.06
3399 H 115.37303773783978 114.47426271125784 211.5494595960063 H 0.0 **** 0.06
3400 H 114.48594334202741 116.00391514146526 211.75162739850435 H 0.0 **** 0.06
3401 C 29.49525431798051 0.8056807474074503 122.39392205787806 C 0.0 **** -0.24
3402 H 30.489673716582587 0.974600478430176 122.80802441336931 H 0.0 **** 0.06
3403 H 29.585627772456945 0.4027456038013213 121.38560788598124 H 0.0 **** 0.06
3404 H 28.951164945309273 1.7494413325867413 122.3619333421029 H 0.0 **** 0.06
3405 H 28.956626018787887 0.09622880682576351 123.02226915139047 H 0.0 **** 0.06
3406 C 15.37042424784903 167.0768923918166 42.7967298352294 C 0.0 **** -0.24
3407 H 16.110720506265395 167.3750813162966 43.53865798365538 H 0.0 **** 0.06
3408 H 15.186496174070058 166.00524755897027 42.87895753028383 H 0.0 **** 0.06
3409 H 15.742394016886976 167.30763537048745 41.79898000281136 H 0.0 **** 0.06
3410 H 14.441641144773286 167.6196974314737 42.973289198579295 H 0.0 **** 0.06
3411 C 62.58053265783303 238.26982509759893 240.59535917167506 C 0.0 **** -0.24
3412 H 61.71964813436742 238.6679231420083 241.1329987896178 H 0.0 **** 0.06
3413 H 63.09067130533802 239.08152089250606 240.07520238664017 H 0.0 **** 0.06
3414 H 62.24445066077777 237.52810485665844 239.86976110180657 H 0.0 **** 0.06
3415 H 63.26624809317059 237.80236400406847 241.30163392801538 H 0.0 **** 0.06
3416 C 96.92600817122701 106.43810684413549 239.40942709263857 C 0.0 **** -0.24
3417 H 95.93966617634243 106.75578412990959 239.7454392450434 H 0.0 **** 0.06
3418 H 96.84386916159008 105.48060525589972 238.89434897422717 H 0.0 **** 0.06
3419 H 97.58655851734991 106.33188490339401 240.27006854565508 H 0.0 **** 0.06
3420 H 97.3355625543723 107.1837609665607 238.7273935789313 H 0.0 **** 0.06
3421 C 231.54579795679004 216.6159689737009 229.69806317229802 C 0.0 **** -0.24
3422 H 232.5914207238642 216.3660978803136 229.51864457440828 H 0.0 **** 0.06
3423 H 231.03688953232478 216.7532511607031 228.74345623984357 H 0.0 **** 0.06
3424 H 231.48659682619927 217.5362035166518 230.2778123982705 H 0.0 **** 0.06
3425 H 231.0684778829184 215.8062390372885 230.2510672934161 H 0.0 **** 0.06
3426 C 64.00615903093788 84.15424694958915 179.15871729357988 C 0.0 **** -0.24
3427 H 63.52476337155309 83.46869945398086 178.46204562817644 H 0.0 **** 0.06
3428 H 63.25341859354367 84.59764741983312 179.8113170451496 H 0.0 **** 0.06
3429 H 64.51382968302221 84.94109407347119 178.60242989997425 H 0.0 **** 0.06
3430 H 64.73298677371326 83.60848408476926 179.76101033227621 H 0.0 **** 0.06
3431 C 130.49045364962336 98.08571293806057 171.25409400419738 C 0.0 **** -0.24
3432 H 130.24927504324694 97.81138686641884 172.28091465659088 H 0.0 **** 0.06
3433 H 129.77611543239846 97.61775606155223 170.5763508028119 H 0.0 **** 0.06
3434 H 131.49718360721548 97.7434645812655 171.01391401755615 H 0.0 **** 0.06
3435 H 130.43949141069658 99.1693096314875 171.14494442336073 H 0.0 **** 0.06
3436 C 56.744777320491124 131.62962103539243 233.80822481399437 C 0.0 **** -0.24
3437 H 56.25441750921624 132.60240857898484 233.7545197428672 H 0.0 **** 0.06
3438 H 56.019585626252876 130.84535640386858 233.5903841231751 H 0.0 **** 0.06
3439 H 57.1507976112359 131.48253478796155 234.80850563361975 H 0.0 **** 0.06
3440 H 57.55366132122137 131.59041248628083 233.07870447062362 H 0.0 **** 0.06
3441 C 0.4517271670067231 75.62838868673276 189.5604648382486 C 0.0 **** -0.24
3442 H 0.20990756456262716 75.45916970364055 188.51169757417517 H 0.0 **** 0.06
3443 H -0.09332580781429556 76.49970763180488 189.9228556698397 H 0.0 **** 0.06
3444 H 1.5234840276346944 75.80218209342056 189.66211454668286 H 0.0 **** 0.06
3445 H 0.16956900116154827 74.75323579446874 190.14504994353092 H 0.0 **** 0.06
3446 C 63.0614607886024 157.62291509317467 39.0822775177583 C 0.0 **** -0.24
3447 H 62.14963436621014 157.60981343224856 39.67980282780985 H 0.0 **** 0.06
3448 H 63.376626953879395 156.59975558398946 38.87789436123512 H 0.0 **** 0.06
3449 H 63.84712246356193 158.14345644480264 39.62988139169455 H 0.0 **** 0.06
3450 H 62.87150480875988 158.13958481038398 38.14196337370011 H 0.0 **** 0.06
3451 C 205.82898961439187 216.27712283235087 119.01199020191837 C 0.0 **** -0.24
3452 H 206.6049856429181 216.86556718931465 118.52217495717176 H 0.0 **** 0.06
3453 H 205.79241137194185 215.28292988149218 118.56654887199204 H 0.0 **** 0.06
3454 H 204.86482271312425 216.76959096277824 118.88099437086998 H 0.0 **** 0.06
3455 H 206.0527258680262 216.1932283980693 120.07463801016371 H 0.0 **** 0.06
3456 C 198.0210694001771 178.6584088307493 94.57569101805132 C 0.0 **** -0.24
3457 H 197.40230814630158 178.21123287043523 95.353688280489 H 0.0 **** 0.06
3458 H 198.05283430603316 179.73957530961673 94.71380551249644 H 0.0 **** 0.06
3459 H 197.5970443660321 178.42915664413115 93.59810379754285 H 0.0 **** 0.06
3460 H 199.03128142272914 178.25417208415496 94.63821212436864 H 0.0 **** 0.06
3461 C 92.3334536441937 3.9130110520395505 102.54063539314407 C 0.0 **** -0.24
3462 H 92.77983126984387 2.980233062760462 102.88605081306372 H 0.0 **** 0.06
3463 H 92.98676612871563 4.376393984980936 101.80099113468881 H 0.0 **** 0.06
3464 H 92.20471629906388 4.5886720132219665 103.38573747137511 H 0.0 **** 0.06
3465 H 91.36280191581514 3.705813993757303 102.08996792016202 H 0.0 **** 0.06
3466 C 86.932154442858 54.825477323268956 94.55606407278358 C 0.0 **** -0.24
3467 H 86.38194034522436 54.633320412273775 95.47682719713384 H 0.0 **** 0.06
3468 H 87.70940189539886 55.56619446326184 94.74659253411576 H 0.0 **** 0.06
3469 H 86.248323944975 55.20301684329337 93.795708674324 H 0.0 **** 0.06
3470 H 87.38927910754853 53.90026644196763 94.20544828131426 H 0.0 **** 0.06
3471 C 198.5512849065569 178.95270725800367 169.9566578140944 C 0.0 **** -0.24
3472 H 199.06208564827722 179.90271467182924 169.8028980177624 H 0.0 **** 0.06
3473 H 199.23727660515726 178.13225181343506 169.7424806990735 H 0.0 **** 0.06
3474 H 197.69031389892757 178.8906279147455 169.29120034226486 H 0.0 **** 0.06
3475 H 198.21598344254056 178.8838938901133 170.99203515017132 H 0.0 **** 0.06
3476 C 95.80122781870725 63.725887552773145 234.17234560901895 C 0.0 **** -0.24
3477 H 94.72429354222942 63.89283755169305 234.2106188504938 H 0.0 **** 0.06
3478 H 96.32024109587499 64.65864181459136 234.39461634735707 H 0.0 **** 0.06
3479 H 96.0795137381204 63.38357206906636 233.17541851566477 H 0.0 **** 0.06
3480 H 96.07779590990796 62.97072764696412 234.90710826615893 H 0.0 **** 0.06
3481 C 181.36759211357642 2.3305746086659838 30.108184831498335 C 0.0 **** -0.24
3482 H 182.23915829155257 2.9336877630008615 29.854443849056494 H 0.0 **** 0.06
3483 H 181.66660013273642 1.5248149322959392 30.77896282926487 H 0.0 **** 0.06
3484 H 180.93994250835541 1.9084031252241118 29.19871706177848 H 0.0 **** 0.06
3485 H 180.62403599628007 2.957672859667312 30.601249395381217 H 0.0 **** 0.06
3486 C 48.243279924433395 177.6076000358626 174.5245825134694 C 0.0 **** -0.24
3487 H 48.60616390427016 176.95861398648807 175.32093474938432 H 0.0 **** 0.06
3488 H 47.182343860502655 177.80707128774588 174.67376512764196 H 0.0 **** 0.06
3489 H 48.389559896597305 177.11763372368603 173.5620375792882 H 0.0 **** 0.06
3490 H 48.796274673205446 178.54659425702232 174.5421103988843 H 0.0 **** 0.06
3491 C 107.69728814346621 35.0151569993198 148.08785458164513 C 0.0 **** -0.24
3492 H 108.75023735292277 34.81009026170017 147.89822559927418 H 0.0 **** 0.06
3493 H 107.53863095728332 36.09327979284072 148.12452494906375 H 0.0 **** 0.06
3494 H 107.40663546915962 34.57220142196857 149.0400814148437 H 0.0 **** 0.06
3495 H 107.09394799290786 34.586726016219245 147.28712920385215 H 0.0 **** 0.06
3496 C 215.43274423361936 97.97208247075176 107.41813806079114 C 0.0 **** -0.24
3497 H 215.26486229127147 98.60274539317652 108.29145673439427 H 0.0 **** 0.06
3498 H 216.3102694610957 98.32785032873986 106.87736890054845 H 0.0 **** 0.06
3499 H 214.56029652759727 98.01576181775201 106.76555037155276 H 0.0 **** 0.06
3500 H 215.59578986028984 96.94290703911224 107.73843733688267 H 0.0 **** 0.06
3501 C 34.911779858737575 196.5671369201165 168.1596508470529 C 0.0 **** -0.24
3502 H 35.21632823998212 196.8005938409656 169.1795786448992 H 0.0 **** 0.06
3503 H 33.946659026142214 197.03105367057663 167.95368093200517 H 0.0 **** 0.06
3504 H 34.827381894061716 195.4861222049953 168.04430030629806 H 0.0 **** 0.06
3505 H 35.65554524253655 196.95055706621622 167.4617499899742 H 0.0 **** 0.06
3506 C 160.32544476517072 93.12457859418944 221.52343786717194 C 0.0 **** -0.24
3507 H 160.7567355852835 92.52486018335031 220.72172992269975 H 0.0 **** 0.06
3508 H 159.72998516136667 92.48567897003554 222.17474170443734 H 0.0 **** 0.06
3509 H 159.68994489516518 93.90013610649439 221.09452290914996 H 0.0 **** 0.06
3510 H 161.12493670559897 93.58793724144618 222.1005478731329 H 0.0 **** 0.06
3511 C 246.201951826268 34.72393753590123 28.143532746737122 C 0.0 **** -0.24
3512 H 246.88779189738335 34.35375087046175 28.906032455345922 H 0.0 **** 0.06
3513 H 245.7893002789864 35.68107124214205 28.46017974866274 H 0.0 **** 0.06
3514 H 245.39339866539228 34.00613543512296 28.00459570650733 H 0.0 **** 0.06
3515 H 246.73972786283952 34.851395580745006 27.204126578622123 H 0.0 **** 0.06
3516 C 35.18235851311469 77.5174414144231 31.917015709431794 C 0.0 **** -0.24
3517 H 35.49992831525461 78.4986896609679 31.56543803563251 H 0.0 **** 0.06
3518 H 34.99202329594219 77.56014383958035 32.988966066285485 H 0.0 **** 0.06
3519 H 35.967424807155396 76.78767431567047 31.715659116409142 H 0.0 **** 0.06
3520 H 34.27051489854517 77.22359455546467 31.3971764896054 H 0.0 **** 0.06
3521 C 189.25718135792414 114.24178813584462 208.2948169449072 C 0.0 **** -0.24
3522 H 190.1636742887481 114.26997844777037 208.90011972009492 H 0.0 **** 0.06
3523 H 189.4722774275732 113.7592355578578 207.34119895885289 H 0.0 **** 0.06
3524 H 188.90714312571345 115.25945860498462 208.11717506584796 H 0.0 **** 0.06
3525 H 188.48609935344672 113.6794015799284 208.82216358736312 H 0.0 **** 0.06
3526 C 84.20432745806846 241.13238661733712 240.6880414100765 C 0.0 **** -0.24
3527 H 85.05331442276733 240.99875410791105 241.35939606108514 H 0.0 **** 0.06
3528 H 83.54589428975481 241.9054695351653 241.08531479578193 H 0.0 **** 0.06
3529 H 83.65510348754665 240.19436304679382 240.60524416877337 H 0.0 **** 0.06
3530 H 84.56330110220753 241.43239560426764 239.70356942005296 H 0.0 **** 0.06
3531 C 134.01511551199718 123.04010354339903 51.83425937412473 C 0.0 **** -0.24
3532 H 134.56887141936795 123.67786464762466 52.522232283695274 H 0.0 **** 0.06
3533 H 134.5079065425386 123.04229138066191 50.86114386238735 H 0.0 **** 0.06
3534 H 132.99823871416504 123.41762665942102 51.72702857843436 H 0.0 **** 0.06
3535 H 133.98687485784944 122.02310691958527 52.224701298141824 H 0.0 **** 0.06
3536 C 240.90183435528607 162.5751892502309 47.11650835908628 C 0.0 **** -0.24
3537 H 241.76928760551525 162.04922905563092 46.71700828733745 H 0.0 **** 0.06
3538 H 241.03009085934633 162.7241091231916 48.18918012661143 H 0.0 **** 0.06
3539 H 240.00427418878695 161.9847006040902 46.934881083236604 H 0.0 **** 0.06
3540 H 240.8068096384606 163.54264141662253 46.62385516050185 H 0.0 **** 0.06
3541 C 229.59486610382004 159.6420616784204 169.45311951479206 C 0.0 **** -0.24
3542 H 229.76354886192303 158.73278038765463 170.0296940775033 H 0.0 **** 0.06
3543 H 228.5288221904147 159.86654951821478 169.4322114891789 H 0.0 **** 0.06
3544 H 229.95713177236973 159.49849688511202 168.43509922735305 H 0.0 **** 0.06
3545 H 230.13218687897762 160.46977322784394 169.91626695002205 H 0.0 **** 0.06
3546 C 92.13982713432407 58.899856058016184 181.87668747606932 C 0.0 **** -0.24
3547 H 91.3230560189792 59.60093525490177 181.70485769293106 H 0.0 **** 0.06
3548 H 91.80753336611198 58.114125550572595 182.55572281970726 H 0.0 **** 0.06
3549 H 92.98475828498758 59.429492075035824 182.31856825698594 H 0.0 **** 0.06
3550 H 92.44367143947946 58.45752157195389 180.92897687120382 H 0.0 **** 0.06
3551 C 245.72069195418484 124.60529922962337 152.216353468449 C 0.0 **** -0.24
3552 H 246.2394432784799 125.43559082012777 151.73667179066908 H 0.0 **** 0.06
3553 H 245.00185371409154 124.99582969977132 152.9377771449535 H 0.0 **** 0.06
3554 H 246.4440598297298 123.97298075683895 152.72918561936038 H 0.0 **** 0.06
3555 H 245.19682139728664 124.0196821208107 151.4606300967985 H 0.0 **** 0.06
3556 C 192.72456261211153 174.77585673521628 130.75879521036276 C 0.0 **** -0.24
3557 H 193.37555174618257 173.9017055386999 130.7533729800141 H 0.0 **** 0.06
3558 H 191.78599587806806 174.53247636386553 130.25906521639905 H 0.0 **** 0.06
3559 H 193.213425270696 175.5960926658148 130.23464077438257 H 0.0 **** 0.06
3560 H 192.52232756913904 175.0712037259869 131.7886499173945 H 0.0 **** 0.06
3561 C 195.32351889526763 115.7682428310915 52.69776040144552 C 0.0 **** -0.24
3562 H 195.37745941893434 114.69552754971028 52.5098643606844 H 0.0 **** 0.06
3563 H 194.39828064755233 115.99863468569586 53.22606935352745 H 0.0 **** 0.06
3564 H 195.34402810829258 116.30371857993038 51.74891180579566 H 0.0 **** 0.06
3565 H 196.17460825564856 116.07430307465339 53.30565808344619 H 0.0 **** 0.06
3566 C 74.30147839110623 143.08508121094667 242.51643725988794 C 0.0 **** -0.24
3567 H 74.57730798497812 142.54392174343914 241.61088491834167 H 0.0 **** 0.06
3568 H 75.15904536753459 143.6583010762928 242.87181798156493 H 0.0 **** 0.06
3569 H 73.9947868094855 142.37494432649368 243.28444536467146 H 0.0 **** 0.06
3570 H 73.47652660928867 143.7624564188851 242.29704047617474 H 0.0 **** 0.06
3571 C 192.46587459000938 235.38458893240454 234.60093056715627 C 0.0 **** -0.24
3572 H 191.72672215403296 235.64935844223066 235.35681637155156 H 0.0 **** 0.06
3573 H 192.37903013374458 234.32445171869705 234.36260998722494 H 0.0 **** 0.06
3574 H 193.46605564293424 235.59118455176718 234.98279008041342 H 0.0 **** 0.06
3575 H 192.29180909839476 235.9751398086105 233.70059926628971 H 0.0 **** 0.06
3576 C 6.267070215090769 19.969567299660497 246.11815614610734 C 0.0 **** -0.24
3577 H 5.606026629327715 19.180824592841745 246.4760777582543 H 0.0 **** 0.06
3578 H 7.291438209505344 19.598249869935884 246.0856884853675 H 0.0 **** 0.06
3579 H 6.210948611775322 20.824595912893102 246.79173910583972 H 0.0 **** 0.06
3580 H 5.958432890513663 20.275415397108873 245.11798989880225 H 0.0 **** 0.06
3581 C 229.09582226199882 113.69018525580145 85.5537085551963 C 0.0 **** -0.24
3582 H 229.0453289719373 113.12313837002881 84.62372531104472 H 0.0 **** 0.06
3583 H 228.44401852772816 114.56192176951276 85.48282888108432 H 0.0 **** 0.06
3584 H 230.12141091856554 114.01491034842107 85.7255924646654 H 0.0 **** 0.06
3585 H 228.76956384679886 113.05936312342214 86.38089381731737 H 0.0 **** 0.06
3586 C 111.9356096969988 91.74340662120858 191.79786236607958 C 0.0 **** -0.24
3587 H 112.97502527127108 92.06119831120284 191.87680709341487 H 0.0 **** 0.06
3588 H 111.38349512264188 92.45602964742093 191.18460997549255 H 0.0 **** 0.06
3589 H 111.49310111933454 91.69975358284299 192.79342007275017 H 0.0 **** 0.06
3590 H 111.89215217913238 90.75619194835758 191.33761872964467 H 0.0 **** 0.06
3591 C 192.79516870129586 22.05053710814704 229.4363441528808 C 0.0 **** -0.24
3592 H 193.75232854127137 21.603657707979977 229.7076768359241 H 0.0 **** 0.06
3593 H 192.2605121400863 21.3816551374849 228.7625453462757 H 0.0 **** 0.06
3594 H 192.96923500326827 23.00535730117454 228.93947203859068 H 0.0 **** 0.06
3595 H 192.20154977165816 22.211719695699657 230.3361676402073 H 0.0 **** 0.06
3596 C 237.7938465454696 1.7898151406843112 146.1588626471724 C 0.0 **** -0.24
3597 H 238.6277046613343 1.7118032392505 145.46095408683976 H 0.0 **** 0.06
3598 H 237.8603833125656 2.7332450355479665 146.7006360871002 H 0.0 **** 0.06
3599 H 237.83236336412182 0.9602560079456168 146.86503094948856 H 0.0 **** 0.06
3600 H 236.8539660431881 1.7528059032170518 145.60751109600804 H 0.0 **** 0.06
3601 C 163.84637209863402 2.912531693392836 162.2598436678561 C 0.0 **** -0.24
3602 H 163.07585723050042 3.114088198765913 163.00375386301437 H 0.0 **** 0.06
3603 H 163.86371306718024 3.7186720957221127 161.52595504009685 H 0.0 **** 0.06
3604 H 163.62962659963043 1.9688572572778185 161.75872839035677 H 0.0 **** 0.06
3605 H 164.8174704397987 2.847320839327864 162.75138220455975 H 0.0 **** 0.06
3606 C 194.9727959040701 28.386085450500417 23.01387416223386 C 0.0 **** -0.24
3607 H 194.05098535574973 28.728558725006536 23.484641560835172 H 0.0 **** 0.06
3608 H 195.81023435214047 28.98289909887953 23.378383292166035 H 0.0 **** 0.06
3609 H 194.89106493268167 28.49834710865852 21.93256109861734 H 0.0 **** 0.06
3610 H 195.13907306552 27.338134827119433 23.259754108734526 H 0.0 **** 0.06
3611 C 66.30588632554984 200.74514327335112 54.37489537188239 C 0.0 **** -0.24
3612 H 67.32207584566828 200.77661258337488 53.98383259459942 H 0.0 **** 0.06
3613 H 66.21980467225012 199.93486881958088 55.09831835999384 H 0.0 **** 0.06
3614 H 65.6066137896762 200.57701134520252 53.555685296976634 H 0.0 **** 0.06
3615 H 66.07427655746065 201.69280006612982 54.86080594450638 H 0.0 **** 0.06
3616 C 66.61927918526462 102.0712865856515 186.57022149838167 C 0.0 **** -0.24
3617 H 66.38374652136113 102.37223192395325 187.59135951212326 H 0.0 **** 0.06
3618 H 66.92703371553435 102.94497385735326 185.99615245680144 H 0.0 **** 0.06
3619 H 65.7362648442909 101.62683158673153 186.110953605543 H 0.0 **** 0.06
3620 H 67.42798936563776 101.3413020086339 186.584571436541 H 0.0 **** 0.06
3621 C 176.02958797792488 211.31173083000812 17.768503784357733 C 0.0 **** -0.24
3622 H 175.37284178958464 212.07732789281772 17.353237402285558 H 0.0 **** 0.06
3623 H 176.98328728759864 211.76350451722251 18.042282410499865 H 0.0 **** 0.06
3624 H 176.19549709537733 210.53237287800755 17.025170137675914 H 0.0 **** 0.06
3625 H 175.56528292436292 210.8765113969581 18.65366503255501 H 0.0 **** 0.06
3626 C 8.825455312278095 146.17312243727713 172.5796708983191 C 0.0 **** -0.24
3627 H 9.217896913049515 145.30421125493893 172.0510438844802 H 0.0 **** 0.06
3628 H 8.367095485339377 146.85710828916447 171.86494283885466 H 0.0 **** 0.06
3629 H 9.639829098806757 146.6811008237767 173.09787730516504 H 0.0 **** 0.06
3630 H 8.078726562545839 145.8499400331223 173.30478183771467 H 0.0 **** 0.06
3631 C 69.2634212140994 165.1151754416104 41.74367084911471 C 0.0 **** -0.24
3632 H 69.58764199435399 164.29667479985457 41.100334885298395 H 0.0 **** 0.06
3633 H 69.84966140401087 166.0065236774421 41.52010803507555 H 0.0 **** 0.06
3634 H 69.41060611990395 164.83603398415073 42.78804541826945 H 0.0 **** 0.06
3635 H 68.20725038365288 165.31943280156236 41.56749003749621 H 0.0 **** 0.06
3636 C 118.01482496127468 138.46868250952235 101.58123589968392 C 0.0 **** -0.24
3637 H 118.25238368130633 138.89450275129315 100.60678244382501 H 0.0 **** 0.06
3638 H 118.59442998320853 138.97817133342866 102.35092656766619 H 0.0 **** 0.06
3639 H 118.26066974101789 137.40716833457913 101.58337166265943 H 0.0 **** 0.06
3640 H 116.95117473431364 138.59623985931552 101.782536388164 H 0.0 **** 0.06
3641 C 91.76995399749376 161.60382745813538 216.4724586322393 C 0.0 **** -0.24
3642 H 91.55228138472432 160.6389662754966 216.9301791784766 H 0.0 **** 0.06
3643 H 91.66861552049053 162.39098853298154 217.220444953488 H 0.0 **** 0.06
3644 H 91.07056432258412 161.78474214565807 215.6561630187435 H 0.0 **** 0.06
3645 H 92.7882686670587 161.60031466523859 216.08442711591002 H 0.0 **** 0.06
3646 C 140.10570386337892 116.45753785724261 246.59266077593472 C 0.0 **** -0.24
3647 H 139.57705101041537 117.18444163063984 245.9759553072015 H 0.0 **** 0.06
3648 H 139.47654845900934 116.17288715530839 247.436270892256 H 0.0 **** 0.06
3649 H 141.03123028590207 116.89968388680074 246.9610753468666 H 0.0 **** 0.06
3650 H 140.33684948065076 115.57514891153889 245.99652403449088 H 0.0 **** 0.06
3651 C 57.655832121470866 26.54681971369976 144.86123310676183 C 0.0 **** -0.24
3652 H 56.632529994899954 26.885997753033976 144.70623128077807 H 0.0 **** 0.06
3653 H 58.347941722702416 27.355071282312025 144.62011219644302 H 0.0 **** 0.06
3654 H 57.85692195858755 25.691225998593353 144.215992959184 H 0.0 **** 0.06
3655 H 57.78764248696055 26.254839608614958 145.90403233665472 H 0.0 **** 0.06
3656 C 115.81303455740644 72.28636454969259 218.15395185526594 C 0.0 **** -0.24
3657 H 116.29619001738627 72.53481981052775 217.2096169874543 H 0.0 **** 0.06
3658 H 114.75815590444552 72.07729704425464 217.97778611226752 H 0.0 **** 0.06
3659 H 115.90720183339104 73.12637928146427 218.84258190794043 H 0.0 **** 0.06
3660 H 116.29147014411794 71.4065145949128 218.58566128094841 H 0.0 **** 0.06
3661 C 163.660801696487 50.63230634089442 12.450511135178402 C 0.0 **** -0.24
3662 H 164.51321753769753 49.95826395441412 12.526614030281024 H 0.0 **** 0.06
3663 H 163.05282454503964 50.55287347215918 13.351441080869193 H 0.0 **** 0.06
3664 H 163.06014562277193 50.36128895427797 11.581749122362183 H 0.0 **** 0.06
3665 H 164.01712369612 51.65720098937744 12.340043151107608 H 0.0 **** 0.06
3666 C 100.08476851032356 106.95952257948588 186.05689347859337 C 0.0 **** -0.24
3667 H 100.56668670452723 107.24684280816606 186.9917466839849 H 0.0 **** 0.06
3668 H 100.757806684265 106.32488586264179 185.48090440117005 H 0.0 **** 0.06
3669 H 99.8478022749097 107.85512757362935 185.48128659779377 H 0.0 **** 0.06
3670 H 99.16644324155783 106.41462152781023 186.2748249129483 H 0.0 **** 0.06
3671 C 17.368214804086165 211.3567682661625 248.02823448771366 C 0.0 **** -0.24
3672 H 17.73631023616352 212.1032150575482 248.73366452042308 H 0.0 **** 0.06
3673 H 16.345260698816006 211.60276348938837 247.74125569158247 H 0.0 **** 0.06
3674 H 17.388346252208336 210.37331945806247 248.4977765360453 H 0.0 **** 0.06
3675 H 18.003036192651493 211.35115811987941 247.14237338303246 H 0.0 **** 0.06
3676 C 44.411216316148355 189.02618892050947 8.422880303196592 C 0.0 **** -0.24
3677 H 44.8596420174557 188.03478019936816 8.367448391344368 H 0.0 **** 0.06
3678 H 44.812882340438364 189.5597611018186 9.284624294487998 H 0.0 **** 0.06
3679 H 43.32962988626295 188.92989189839363 8.526365876655149 H 0.0 **** 0.06
3680 H 44.64044086933117 189.58002417651625 7.512212313610661 H 0.0 **** 0.06
3681 C 40.57520479171626 87.36913206996837 130.66520487523826 C 0.0 **** -0.24
3682 H 40.861214507258495 86.65825046096771 131.43974883114 H 0.0 **** 0.06
3683 H 40.85783059691644 88.37502776248161 130.97351813477147 H 0.0 **** 0.06
3684 H 39.49712762151208 87.32462865429403 130.51155062837142 H 0.0 **** 0.06
3685 H 41.08451850919528 87.1167115562805 129.73542211257836 H 0.0 **** 0.06
3686 C 152.98477272826977 205.33364410453694 22.971183737333632 C 0.0 **** -0.24
3687 H 152.70303660418205 206.29203813684896 23.405453455954472 H 0.0 **** 0.06
3688 H 153.45522518670103 204.7137368691389 23.73440066127378 H 0.0 **** 0.06
3689 H 153.6847517744462 205.4974786007146 22.152684410092803 H 0.0 **** 0.06
3690 H 152.09417762046553 204.83090520526582 22.59329945873654 H 0.0 **** 0.06
3691 C 232.57398767472216 69.54973810532587 173.30134629686938 C 0.0 **** -0.24
3692 H 232.6906859585098 70.24655263209135 172.4713742526872 H 0.0 **** 0.06
3693 H 233.55627367798505 69.21828418944116 173.6377420111889 H 0.0 **** 0.06
3694 H 231.99141218197303 68.6890025568471 172.97418017385564 H 0.0 **** 0.06
3695 H 232.05688675983876 70.04669992353232 174.1221417426437 H 0.0 **** 0.06
3696 C 59.85780804360303 137.52195723103316 214.58778268565965 C 0.0 **** -0.24
3697 H 59.132237362542384 137.46432230607135 213.77652873690818 H 0.0 **** 0.06
3698 H 59.59641148049309 138.34609810247943 215.251528291884 H 0.0 **** 0.06
3699 H 60.85269620942003 137.68885153197388 214.17461395325608 H 0.0 **** 0.06
3700 H 59.850554419234214 136.5865240648927 215.14781014183487 H 0.0 **** 0.06
3701 C 240.08508409592372 161.21916849466433 3.7955828201978363 C 0.0 **** -0.24
3702 H 239.72178920045394 160.2211173351528 3.549060451278308 H 0.0 **** 0.06
3703 H 239.85342489554094 161.90209826251473 2.978998161935664 H 0.0 **** 0.06
3704 H 241.16451111745806 161.18483673448947 3.9468647273555746 H 0.0 **** 0.06
3705 H 239.60125755179203 161.56587998080226 4.708440193935786 H 0.0 **** 0.06
3706 C 12.48405373428136 125.6806261560227 84.9935708198376 C 0.0 **** -0.24
3707 H 12.108372335469213 124.79684869527568 85.50913793923192 H 0.0 **** 0.06
3708 H 12.995022521802966 126.32673508845178 85.70816281897629 H 0.0 **** 0.06
3709 H 11.649895312407224 126.221962273368 84.54567181590198 H 0.0 **** 0.06
3710 H 13.181705207083198 125.37701180646451 84.21318417442001 H 0.0 **** 0.06
3711 C 202.75761948599614 204.0372899824419 77.37166813312533 C 0.0 **** -0.24
3712 H 202.72645853369022 203.7416534398281 78.42074420608591 H 0.0 **** 0.06
3713 H 201.91019211118868 204.68808342280482 77.15287068013635 H 0.0 **** 0.06
3714 H 202.70627842792084 203.14980537066458 76.74202877991348 H 0.0 **** 0.06
3715 H 203.68702417045847 204.57117119635961 77.17254918736103 H 0.0 **** 0.06
3716 C 43.615488711725064 127.34194066044671 186.03742458285416 C 0.0 **** -0.24
3717 H 42.91962579861037 126.62245938876023 185.60711531663375 H 0.0 **** 0.06
3718 H 44.13920307764734 127.86370506382991 185.2361769661122 H 0.0 **** 0.06
3719 H 44.337810140845406 126.81920009594629 186.66368859718546 H 0.0 **** 0.06
3720 H 43.06457242510653 128.06284096602803 186.64159886637717 H 0.0 **** 0.06
3721 C 180.09279143231223 236.6628539291952 18.841866413261926 C 0.0 **** -0.24
3722 H 179.70018077455902 235.70075965615155 19.170099629794862 H 0.0 **** 0.06
3723 H 179.28983876406468 237.25071781971528 18.39781278815748 H 0.0 **** 0.06
3724 H 180.8776008876261 236.50159153296582 18.1018379396274 H 0.0 **** 0.06
3725 H 180.50587376162653 237.1977230506824 19.697280105324978 H 0.0 **** 0.06
3726 C 178.2121262789579 156.66869876196643 219.28652560233007 C 0.0 **** -0.24
3727 H 177.87806898026125 156.6100595625824 220.32235750633225 H 0.0 **** 0.06
3728 H 177.95511571013373 155.7447091281966 218.7689212267871 H 0.0 **** 0.06
3729 H 179.2914678670627 156.81289827423757 219.2611525955181 H 0.0 **** 0.06
3730 H 177.7216540294521 157.5088331202755 218.79418038987652 H 0.0 **** 0.06
3731 C 246.56441195506883 3.3404570136193144 154.55975028552865 C 0.0 **** -0.24
3732 H 247.5350123208507 2.891611338826195 154.77502935198123 H 0.0 **** 0.06
3733 H 246.39604003357718 4.180882559515354 155.23347750888314 H 0.0 **** 0.06
3734 H 245.78092242218383 2.5961294083315494 154.7044608377061 H 0.0 **** 0.06
3735 H 246.54718500291142 3.6905340561289393 153.52817389245342 H 0.0 **** 0.06
3736 C 36.309281060433236 61.83409803491807 17.645880722292333 C 0.0 **** -0.24
3737 H 35.306450046699396 62.26163688810979 17.636496677752774 H 0.0 **** 0.06
3738 H 36.97112041276479 62.44749637028079 17.033825389251348 H 0.0 **** 0.06
3739 H 36.27668433539242 60.82202948527504 17.24416034693698 H 0.0 **** 0.06
3740 H 36.68256773636911 61.80694753911433 18.67043940471828 H 0.0 **** 0.06
3741 C 202.39201339221904 109.40064581802343 6.880585574644087 C 0.0 **** -0.24
3742 H 201.5599559344493 108.7388383010829 6.640684002748699 H 0.0 **** 0.06
3743 H 202.0326339015184 110.42869992337856 6.9369390847873404 H 0.0 **** 0.06
3744 H 203.1525819993547 109.32400881107932 6.1045007095212895 H 0.0 **** 0.06
3745 H 202.8210651722095 109.11265642125127 7.839944339431312 H 0.0 **** 0.06
3746 C 12.25502559429269 44.655671524471785 223.70522999705565 C 0.0 **** -0.24
3747 H 13.136159936728035 44.278288038113914 224.2248775229158 H 0.0 **** 0.06
3748 H 11.60482053477952 45.16467734901241 224.41679799872486 H 0.0 **** 0.06
3749 H 11.717878820248927 43.823442872407355 223.25073205542503 H 0.0 **** 0.06
3750 H 12.564752839767209 45.356079020358635 222.92931379893707 H 0.0 **** 0.06
3751 C 42.94932858548802 162.4306304514974 89.32579786059404 C 0.0 **** -0.24
3752 H 43.425560218546735 161.5081388075572 89.6579441651754 H 0.0 **** 0.06
3753 H 42.725888781639696 163.0557323329474 90.19068332513817 H 0.0 **** 0.06
3754 H 42.024907779489354 162.19253014761927 88.80028860187764 H 0.0 **** 0.06
3755 H 43.62220810716602 162.96479450759924 88.65557068139367 H 0.0 **** 0.06
3756 C 224.77776024963205 237.86669112329437 175.8215998054133 C 0.0 **** -0.24
3757 H 225.1319056701931 237.067476190159 176.47372946567447 H 0.0 **** 0.06
3758 H 224.48520892439464 238.72466769864832 176.42713055605853 H 0.0 **** 0.06
3759 H 223.91975878195265 237.51456688338158 175.2499228344097 H 0.0 **** 0.06
3760 H 225.57560406654468 238.15735807553543 175.13872607733626 H 0.0 **** 0.06
3761 C 19.869903387471794 117.35937222117786 119.90555094952452 C 0.0 **** -0.24
3762 H 20.116000321252244 116.8896797454459 120.85727929068486 H 0.0 **** 0.06
3763 H 20.678562898639058 117.18820973206803 119.19536381826407 H 0.0 **** 0.06
3764 H 19.737665574063016 118.43134897447555 120.05347854685695 H 0.0 **** 0.06
3765 H 18.94657164568102 116.930506427871 119.51558274662716 H 0.0 **** 0.06
3766 C 99.68820250888135 154.37459725958126 96.08405165881254 C 0.0 **** -0.24
3767 H 100.76284078683224 154.27506085873037 95.93142910151502 H 0.0 **** 0.06
3768 H 99.37356768370105 153.7141481121163 96.89334853844491 H 0.0 **** 0.06
3769 H 99.16488141991249 154.10217393329123 95.16759482026467 H 0.0 **** 0.06
3770 H 99.45280718168581 155.4068320000561 96.344393847746 H 0.0 **** 0.06
3771 C 245.76534838976698 209.98998875461567 78.56515104985479 C 0.0 **** -0.24
3772 H 246.09700367682024 209.3036790758503 79.34450807169043 H 0.0 **** 0.06
3773 H 246.6280424468142 210.50398854303455 78.14163157261373 H 0.0 **** 0.06
3774 H 245.07934953329715 210.7215728833568 78.99253355310503 H 0.0 **** 0.06
3775 H 245.25537919513872 209.42921269779868 77.78157832968537 H 0.0 **** 0.06
3776 C 159.8473845903542 188.4441381728551 222.7386314835069 C 0.0 **** -0.24
3777 H 159.22972828415948 189.32822397851916 222.57586920513086 H 0.0 **** 0.06
3778 H 160.12238336298773 188.01127226876693 221.77661206746433 H 0.0 **** 0.06
3779 H 159.28671879168093 187.71253628484646 223.320017847121 H 0.0 **** 0.06
3780 H 160.74825700248664 188.72650956620421 223.2822148253467 H 0.0 **** 0.06
3781 C 97.46103217038939 229.71958563340561 26.176703073045402 C 0.0 **** -0.24
3782 H 97.71465366102854 229.050611692087 25.3539767634675 H 0.0 **** 0.06
3783 H 97.44118765110238 229.15553270650088 27.109636118689636 H 0.0 **** 0.06
3784 H 96.48010918199344 230.15973547953286 25.996714809171905 H 0.0 **** 0.06
3785 H 98.2084067492043 230.51021400669907 26.24554046288374 H 0.0 **** 0.06
3786 C 222.24993218667936 194.20527310907008 124.19567119276383 C 0.0 **** -0.24
3787 H 221.18058560248963 194.38225749876602 124.3083431594292 H 0.0 **** 0.06
3788 H 222.409039695988 193.2532707203711 123.68881734247162 H 0.0 **** 0.06
3789 H 222.71930122459443 194.17769930399322 125.17924730285517 H 0.0 **** 0.06
3790 H 222.69028398247394 195.00903241142748 123.60510717868047 H 0.0 **** 0.06
3791 C 59.28738342384398 36.07006125558982 144.66855444932736 C 0.0 **** -0.24
3792 H 58.44881293498926 36.72115700696176 144.420745185906 H 0.0 **** 0.06
3793 H 58.97742814958977 35.02809114274814 144.5779641670247 H 0.0 **** 0.06
3794 H 59.60841084803636 36.26536315035614 145.69210764250852 H 0.0 **** 0.06
3795 H 60.11311258628706 36.26473270013466 143.98442950122543 H 0.0 **** 0.06
3796 C 64.33483799653197 68.57997740787872 237.03376021291226 C 0.0 **** -0.24
3797 H 64.27937302150153 68.59942293627313 235.9450806996379 H 0.0 **** 0.06
3798 H 65.23183151225862 69.10600154724753 237.36142133668676 H 0.0 **** 0.06
3799 H 64.37472895194551 67.54572589406527 237.37658537777418 H 0.0 **** 0.06
3800 H 63.45439603590714 69.06791416771429 237.4513787435968 H 0.0 **** 0.06
3801 C 118.89529266892376 58.61204116765887 1.6760790288433327 C 0.0 **** -0.24
3802 H 118.52014908129041 59.25011998309691 0.8763432745530508 H 0.0 **** 0.06
3803 H 118.12519454115852 57.89265083287117 1.9580790435705637 H 0.0 **** 0.06
3804 H 119.15278010923362 59.22640742377487 2.5392168491313214 H 0.0 **** 0.06
3805 H 119.78138713300467 58.080111415045934 1.3316666383530276 H 0.0 **** 0.06
3806 C 10.441411064394273 146.56641814504601 200.86893972125347 C 0.0 **** -0.24
3807 H 9.427512945871982 146.95953596956156 200.93718590399493 H 0.0 **** 0.06
3808 H 10.409925681708629 145.4770466938599 200.89057492217034 H 0.0 **** 0.06
3809 H 11.030633335351226 146.93033876879977 201.70996555486528 H 0.0 **** 0.06
3810 H 10.896901114208902 146.89765420024673 199.93594773038524 H 0.0 **** 0.06
3811 C 135.13242673533347 102.00665898060188 188.90479914795645 C 0.0 **** -0.24
3812 H 136.01670643979313 102.63003715157464 189.04162984879366 H 0.0 **** 0.06
3813 H 134.26395757230185 102.5134331002248 189.3256980368688 H 0.0 **** 0.06
3814 H 135.2786976846131 101.05301864861826 189.4129620204045 H 0.0 **** 0.06
3815 H 134.97272657880274 101.83134549354668 187.841334244214 H 0.0 **** 0.06
3816 C 125.28547252606043 213.35052215444898 19.835373129811813 C 0.0 **** -0.24
3817 H 124.31548352798453 212.92383630337883 20.091835803707767 H 0.0 **** 0.06
3818 H 125.23954722640818 214.4353563939648 19.92496720304527 H 0.0 **** 0.06
3819 H 125.5407963485662 213.08069840236504 18.810461689346 H 0.0 **** 0.06
3820 H 126.04390090898428 212.96047159131692 20.513067383010053 H 0.0 **** 0.06
3821 C 152.77750617400412 71.13810629641722 217.10370704016225 C 0.0 **** -0.24
3822 H 153.01377772417854 70.08132700153752 217.22564899130884 H 0.0 **** 0.06
3823 H 151.9797220602391 71.24997831597037 216.36854464917093 H 0.0 **** 0.06
3824 H 153.66473649071827 71.67035654118524 216.7607644635439 H 0.0 **** 0.06
3825 H 152.45270479417107 71.55079475931623 218.0587933526386 H 0.0 **** 0.06
3826 C 102.88417910540952 102.21293205544563 197.7289932336496 C 0.0 **** -0.24
3827 H 103.9031732014981 102.56817920924064 197.88450550665448 H 0.0 **** 0.06
3828 H 102.78110237796679 101.21208506358593 198.148296294109 H 0.0 **** 0.06
3829 H 102.66913420424984 102.18333691127506 196.6603265890121 H 0.0 **** 0.06
3830 H 102.18502948610976 102.88841047098285 198.2214475808373 H 0.0 **** 0.06
3831 C 232.08077261611368 7.657965580555157 147.5846098059239 C 0.0 **** -0.24
3832 H 232.9908260709824 8.183483080500395 147.87515350693693 H 0.0 **** 0.06
3833 H 231.30105812232267 8.384151808856558 147.35129359351617 H 0.0 **** 0.06
3834 H 231.7517908898228 7.022272612054422 148.40581807983048 H 0.0 **** 0.06
3835 H 232.280753833216 7.043955849796504 146.70662624685878 H 0.0 **** 0.06
3836 C 128.79647000056977 222.72703054479058 84.69520978184596 C 0.0 **** -0.24
3837 H 127.98921078740656 222.28780325399998 85.28030251581325 H 0.0 **** 0.06
3838 H 129.5739757189783 221.98046840637716 84.5315320319325 H 0.0 **** 0.06
3839 H 129.2163001598769 223.57581497479347 85.23504419894206 H 0.0 **** 0.06
3840 H 128.40738329117548 223.0632854308041 83.73463664873921 H 0.0 **** 0.06
3841 C 171.80005034537447 223.29997855129244 66.27955880751082 C 0.0 **** -0.24
3842 H 171.9499088145436 222.5965025538399 67.0982507668667 H 0.0 **** 0.06
3843 H 172.05566171412437 222.81832918324315 65.33574087824502 H 0.0 **** 0.06
3844 H 172.4386126177508 224.1711827286096 66.42761987735906 H 0.0 **** 0.06
3845 H 170.75697468091786 223.6141652087194 66.25674514552597 H 0.0 **** 0.06
3846 C 8.638959636022292 178.80570009218167 239.2556692309208 C 0.0 **** -0.24
3847 H 8.826705392261246 179.22888434914918 238.26783159004856 H 0.0 **** 0.06
3848 H 8.71584236548189 177.7201069260587 239.2053991462342 H 0.0 **** 0.06
3849 H 7.638849170988408 179.08566460988382 239.58552903273636 H 0.0 **** 0.06
3850 H 9.375676017917783 179.19000508275133 239.96091472938235 H 0.0 **** 0.06
3851 C 152.0951566106461 62.2239573312348 23.78490039566512 C 0.0 **** -0.24
3852 H 151.39227903518545 61.428051841496625 23.537465271947696 H 0.0 **** 0.06
3853 H 151.54846979591275 63.082127164466726 24.176076360287396 H 0.0 **** 0.06
3854 H 152.6409937504029 62.51761173415326 22.888180551306704 H 0.0 **** 0.06
3855 H 152.79857367968816 61.86628099592389 24.536201684246493 H 0.0 **** 0.06
3856 C 242.79272525235288 199.99306702131 92.56334033246003 C 0.0 **** -0.24
3857 H 241.95696889251053 200.55989364153288 92.15208801757106 H 0.0 **** 0.06
3858 H 243.21322091008352 199.35177191826125 91.7889879851754 H 0.0 **** 0.06
3859 H 242.44145338134834 199.380627573855 93.3932725927719 H 0.0 **** 0.06
3860 H 243.5576723650402 200.68333158526448 92.91948120196784 H 0.0 **** 0.06
3861 C 21.521188281827392 231.9691341615023 3.3511679120396423 C 0.0 **** -0.24
3862 H 22.41817165399158 231.35851511648235 3.4517799176176993 H 0.0 **** 0.06
3863 H 20.739206195998406 231.57481174752576 4.000815069609729 H 0.0 **** 0.06
3864 H 21.180533520335814 231.94584092003026 2.316306413181195 H 0.0 **** 0.06
3865 H 21.74751719984141 232.99657644735822 3.636727261596576 H 0.0 **** 0.06
3866 C 248.682021298914 17.608312959991807 85.05839784483913 C 0.0 **** -0.24
3867 H 248.7101010389423 17.36737099562228 83.99566971952899 H 0.0 **** 0.06
3868 H 248.58634266282286 16.68934649286237 85.63682312193006 H 0.0 **** 0.06
3869 H 247.8295334209065 18.25678784106323 85.26052235001205 H 0.0 **** 0.06
3870 H 249.60278343986778 18.12003751079817 85.33989853894238 H 0.0 **** 0.06
3871 C 127.5779269356577 177.324158583983 107.10510015787892 C 0.0 **** -0.24
3872 H 128.2194049208319 176.9793386657039 106.29453629192466 H 0.0 **** 0.06
3873 H 127.7617385102563 176.72020365207868 107.99491605789623 H 0.0 **** 0.06
3874 H 126.53367461420117 177.22648923588937 106.80844656244324 H 0.0 **** 0.06
3875 H 127.7986688579301 178.36868880153145 107.32358400538294 H 0.0 **** 0.06
3876 C 20.857865273956662 207.81156280774954 216.54208546458702 C 0.0 **** -0.24
3877 H 20.041028031780428 208.09685575329473 217.20489344762973 H 0.0 **** 0.06
3878 H 20.758022772631506 206.75949370037875 216.2753746927041 H 0.0 **** 0.06
3879 H 21.809495768055086 207.96914142948032 217.04950437220765 H 0.0 **** 0.06
3880 H 20.821806052804135 208.4204700614607 215.63939822837847 H 0.0 **** 0.06
3881 C 11.290335394780726 199.1626279488495 210.6723924197557 C 0.0 **** -0.24
3882 H 10.892252942339525 199.54733978035296 209.73311411020495 H 0.0 **** 0.06
3883 H 12.333474583150561 199.46530298353045 210.7761519958828 H 0.0 **** 0.06
3884 H 11.225695857911148 198.07494389481684 210.67550522805783 H 0.0 **** 0.06
3885 H 10.71090079363654 199.56383341417353 211.50300681423215 H 0.0 **** 0.06
3886 C 248.50620014686473 85.46875396186175 169.37401401504124 C 0.0 **** -0.24
3887 H 248.1631226025577 84.9828379813506 170.28712135947384 H 0.0 **** 0.06
3888 H 249.4936412801904 85.90095618893318 169.54050373350114 H 0.0 **** 0.06
3889 H 247.8058282407206 86.25728289385606 169.09793813855643 H 0.0 **** 0.06
3890 H 248.5612785503194 84.73398622639365 168.57085754695768 H 0.0 **** 0.06
3891 C 197.4908526718885 136.20633105245992 50.36371884477471 C 0.0 **** -0.24
3892 H 198.1896082579959 135.41233857921324 50.10059881409627 H 0.0 **** 0.06
3893 H 198.00612879770503 136.96123721142885 50.95715946449103 H 0.0 **** 0.06
3894 H 196.6671747870288 135.7877239044929 50.94164995020017 H 0.0 **** 0.06
3895 H 197.10062950537076 136.66253395464219 49.45380546225117 H 0.0 **** 0.06
3896 C 188.3502147256386 114.63918778954945 97.85348118329571 C 0.0 **** -0.24
3897 H 187.57968662761527 114.050310372746 97.35730843785973 H 0.0 **** 0.06
3898 H 188.7223897377026 115.40161917367942 97.16849379442547 H 0.0 **** 0.06
3899 H 189.17134139398098 113.98520279694353 98.15066330602588 H 0.0 **** 0.06
3900 H 187.928810081813 115.11785089547047 98.7374819337376 H 0.0 **** 0.06
3901 C 124.97631916269563 98.12256019860908 52.63625102030993 C 0.0 **** -0.24
3902 H 124.28665803132705 97.90284147816348 51.82017271876707 H 0.0 **** 0.06
3903 H 125.29158466548293 99.16452869510883 52.574688924147324 H 0.0 **** 0.06
3904 H 125.84759668369193 97.47330488157414 52.56021440045595 H 0.0 **** 0.06
3905 H 124.47624898901574 97.9495234660092 53.589015249485925 H 0.0 **** 0.06
3906 C 198.10768456575786 39.91798967728835 207.64503089039283 C 0.0 **** -0.24
3907 H 198.27353038182886 38.84686566959837 207.52791941092028 H 0.0 **** 0.06
3908 H 198.42882398774674 40.435286248790305 206.74069339686935 H 0.0 **** 0.06
3909 H 198.6811529772168 40.28291744672711 208.49715310796034 H 0.0 **** 0.06
3910 H 197.04713364294224 40.10503385777051 207.81311355687507 H 0.0 **** 0.06
3911 C 145.6528931855514 17.246465340904905 160.32966428079 C 0.0 **** -0.24
3912 H 145.6643787059936 16.38376776115129 160.99544317296218 H 0.0 **** 0.06
3913 H 145.38534648436988 16.92358959767037 159.3230657532743 H 0.0 **** 0.06
3914 H 146.6420685056266 17.705285468988762 160.3135132315171 H 0.0 **** 0.06
3915 H 144.92132944267792 17.971615930565775 160.68646770533775 H 0.0 **** 0.06
3916 C 180.07390528142292 150.11942134151764 106.94837026131106 C 0.0 **** -0.24
3917 H 179.45711944768192 149.34584112450128 106.49036102858287 H 0.0 **** 0.06
3918 H 180.98954364301153 150.24458404597817 106.36994458549495 H 0.0 **** 0.06
3919 H 180.32500353500603 149.82518523834497 107.96798556267342 H 0.0 **** 0.06
3920 H 179.52241681392024 151.05911605811195 106.96688709381178 H 0.0 **** 0.06
3921 C 122.0052499031647 144.3149407776682 14.55335541090281 C 0.0 **** -0.24
3922 H 123.03389542965334 144.67487658085392 14.52668763743678 H 0.0 **** 0.06
3923 H 121.73307278415598 144.0730507411517 15.581269515217002 H 0.0 **** 0.06
3924 H 121.91597786766391 143.42258652747228 13.933556275742092 H 0.0 **** 0.06
3925 H 121.33970949756849 145.08982230603823 14.173619779812867 H 0.0 **** 0.06
3926 C 209.81386880122304 157.84454104171303 153.89227853956308 C 0.0 **** -0.24
3927 H 210.80651263935835 157.39375984432675 153.9018752555738 H 0.0 **** 0.06
3928 H 209.82294770612128 158.73007082626782 153.25593574383615 H 0.0 **** 0.06
3929 H 209.5338295498841 158.1280344646419 154.90657191962916 H 0.0 **** 0.06
3930 H 209.09181064434915 157.12562895491052 153.50409043272927 H 0.0 **** 0.06
3931 C 220.0979079601633 34.62717845426829 41.33378578792818 C 0.0 **** -0.24
3932 H 220.08504592532827 35.266237303398455 40.45023559955857 H 0.0 **** 0.06
3933 H 219.53449970505775 35.10605191459551 42.13515706538065 H 0.0 **** 0.06
3934 H 221.12776036648108 34.47253960332735 41.65498263082445 H 0.0 **** 0.06
3935 H 219.64356449670217 33.666256185606656 41.0930951644271 H 0.0 **** 0.06
3936 C 45.633820881088184 90.28013274316564 8.466479829340258 C 0.0 **** -0.24
3937 H 45.12854771473202 90.53631349922458 7.534850061648385 H 0.0 **** 0.06
3938 H 44.955567755314476 89.71035328547907 9.101101472045244 H 0.0 **** 0.06
3939 H 45.931539312401924 91.19372335051153 8.98087413798541 H 0.0 **** 0.06
3940 H 46.5175548182478 89.68168031698022 8.247567562108813 H 0.0 **** 0.06
3941 C 239.10110905965553 55.77494025348338 246.1842489423003 C 0.0 **** -0.24
3942 H 238.40540219238676 55.03013842844979 246.57069527115007 H 0.0 **** 0.06
3943 H 238.63945982366863 56.7610352571067 246.23117646012835 H 0.0 **** 0.06
3944 H 239.3489305373921 55.53658971842023 245.14993027473835 H 0.0 **** 0.06
3945 H 240.00955364089475 55.76926678352419 246.78635758784392 H 0.0 **** 0.06
3946 C 43.809691745327626 107.04343776582925 172.86183289129113 C 0.0 **** -0.24
3947 H 44.51071497308797 107.74645137788423 173.31186385167808 H 0.0 **** 0.06
3948 H 44.33596460809389 106.41704824406304 172.14117581920257 H 0.0 **** 0.06
3949 H 43.01648249782363 107.5935651311406 172.35586595764147 H 0.0 **** 0.06
3950 H 43.376086016196865 106.41599929644465 173.64072737095765 H 0.0 **** 0.06
3951 C 164.9556210849205 90.66467353785089 166.51157871201 C 0.0 **** -0.24
3952 H 164.95094700394415 89.61588321928576 166.80781102986393 H 0.0 **** 0.06
3953 H 165.9714621064535 90.96565683602935 166.25688549394422 H 0.0 **** 0.06
3954 H 164.59095993914752 91.27667019970494 167.33742671117145 H 0.0 **** 0.06
3955 H 164.3081040651953 90.80092381801865 165.6455272485965 H 0.0 **** 0.06
3956 C 172.38310763652348 23.000336738154317 157.89108716698402 C 0.0 **** -0.24
3957 H 172.94011759096975 22.072294855806277 158.0162260312139 H 0.0 **** 0.06
3958 H 171.32277628791567 22.81399595108651 158.06675767859602 H 0.0 **** 0.06
3959 H 172.52327777912393 23.375943219295934 156.87748928243624 H 0.0 **** 0.06
3960 H 172.74538899692234 23.739249425606914 158.6059310846584 H 0.0 **** 0.06
3961 C 205.80479328337628 123.45025046382383 158.7472398893391 C 0.0 **** -0.24
3962 H 206.12145228172915 123.58178592929522 157.71290045636036 H 0.0 **** 0.06
3963 H 205.9457765601178 124.3848556771469 159.29136707388508 H 0.0 **** 0.06
3964 H 206.40050241025915 122.66561090761513 159.21238176036786 H 0.0 **** 0.06
3965 H 204.7522299963918 123.17023701583696 158.77123057326995 H 0.0 **** 0.06
3966 C 16.499694877254257 79.44406457158209 186.88853792175314 C 0.0 **** -0.24
3967 H 16.335073433908946 79.5466279550287 187.96179656507388 H 0.0 **** 0.06
3968 H 16.80509941935756 80.40516051303504 186.47578470415414 H 0.0 **** 0.06
3969 H 15.576678946982298 79.11857672435465 186.41001121298586 H 0.0 **** 0.06
3970 H 17.281386765662006 78.7052340863386 186.7107153165455 H 0.0 **** 0.06
3971 C 170.94338447674548 65.15104972587255 248.97648553448147 C 0.0 **** -0.24
3972 H 171.2341820369825 65.34806730916776 247.94465152676636 H 0.0 **** 0.06
3973 H 171.633416754491 65.6598607580228 249.65120575760625 H 0.0 **** 0.06
3974 H 170.97556453846042 64.07789935234376 249.16416421363053 H 0.0 **** 0.06
3975 H 169.93175629989165 65.52014054737464 249.14494017318225 H 0.0 **** 0.06
3976 C 228.48547528408298 142.8564221625403 68.36825089427404 C 0.0 **** -0.24
3977 H 227.71566875713862 142.76217987209026 67.60246184433458 H 0.0 **** 0.06
3978 H 228.62853640205623 141.89339330470645 68.85915568352905 H 0.0 **** 0.06
3979 H 228.17629240540072 143.5985027410682 69.1040925403027 H 0.0 **** 0.06
3980 H 229.42043517433842 143.17169728443815 67.90554562553399 H 0.0 **** 0.06
3981 C 172.3964107580637 115.41348986806298 5.197311767731065 C 0.0 **** -0.24
3982 H 172.89263633700327 116.37529697118578 5.330446471497623 H 0.0 **** 0.06
3983 H 172.96206003349886 114.80752616346922 4.489785477419218 H 0.0 **** 0.06
3984 H 171.389145331148 115.57596895474327 4.81406449397852 H 0.0 **** 0.06
3985 H 172.34230950257077 114.89827197363542 6.156001049108369 H 0.0 **** 0.06
3986 C 168.50136877715912 133.07427386268586 115.51732669874187 C 0.0 **** -0.24
3987 H 168.97563477559547 132.28784264207277 116.1032475580927 H 0.0 **** 0.06
3988 H 167.47852237128293 133.22105456959852 115.8676169299763 H 0.0 **** 0.06
3989 H 168.48639845337874 132.7849936355457 114.46659104826435 H 0.0 **** 0.06
3990 H 169.06171880836632 134.00238868872339 115.63155140938326 H 0.0 **** 0.06
3991 C 248.5750912471338 93.95195681975193 116.83738170454365 C 0.0 **** -0.24
3992 H 248.99042998838365 93.3071709578472 116.06286605484928 H 0.0 **** 0.06
3993 H 249.16377997544768 93.85067041197996 117.74860297537407 H 0.0 **** 0.06
3994 H 247.54315218926237 93.66058144583153 117.0365568904163 H 0.0 **** 0.06
3995 H 248.60173594442986 94.98769765481077 116.49938385256218 H 0.0 **** 0.06
3996 C 171.48066173448086 152.36341237072887 52.36099055655566 C 0.0 **** -0.24
3997 H 172.55708759237515 152.22663603537185 52.46737749933928 H 0.0 **** 0.06
3998 H 171.25323310830802 153.42809834155312 52.30957488931554 H 0.0 **** 0.06
3999 H 170.97166353118013 151.923336311574 53.21804099395965 H 0.0 **** 0.06
4000 H 171.14124710968946 151.87472294161665 51.446749373669576 H 0.0 **** 0.06
4001 C 77.94351524905645 151.02389219201402 199.47033596955694 C 0.0 **** -0.24
4002 H 78.88216946753434 151.57757418365216 199.48352977377345 H 0.0 **** 0.06
4003 H 77.90897898719172 150.388262788243 198.5857772816015 H 0.0 **** 0.06
4004 H 77.10850688446979 151.72519064850263 199.4472905897556 H 0.0 **** 0.06
4005 H 77.87433914264759 150.4058418370324 200.36529741588367 H 0.0 **** 0.06
4006 C 51.69077308936312 101.44812063492998 18.916869721019424 C 0.0 **** -0.24
4007 H 52.300146316309906 101.85352070119114 18.109072328866972 H 0.0 **** 0.06
4008 H 51.55592046688814 102.20873608030766 19.68711091825712 H 0.0 **** 0.06
4009 H 52.189863937530006 100.5804067585033 19.34717834752759 H 0.0 **** 0.06
4010 H 50.71837698803921 101.15167434288503 18.5251568476681 H 0.0 **** 0.06
4011 C 131.5875518560807 187.40442005454278 210.26019540682475 C 0.0 **** -0.24
4012 H 132.31360124554894 188.0333108642889 210.7747235358809 H 0.0 **** 0.06
4013 H 130.58756978611174 187.81432217441463 210.39938475147488 H 0.0 **** 0.06
4014 H 131.62728235384256 186.3949498671642 210.6698452579184 H 0.0 **** 0.06
4015 H 131.82376155475853 187.3742070093841 209.19640702483784 H 0.0 **** 0.06
4016 C 70.03825594766735 129.73410091272532 188.44313251855186 C 0.0 **** -0.24
4017 H 70.6610997574337 130.31443899824754 189.1235271539707 H 0.0 **** 0.06
4018 H 70.33772459145078 129.9383010458186 187.41473647878465 H 0.0 **** 0.06
4019 H 68.99370495582781 130.01457504714625 188.57995378160712 H 0.0 **** 0.06
4020 H 70.1601462935241 128.6728133651281 188.65424393726565 H 0.0 **** 0.06
4021 C 235.578303662303 149.39901593372554 184.65940085224338 C 0.0 **** -0.24
4022 H 235.15327815076228 148.42157724407016 184.4339846165418 H 0.0 **** 0.06
4023 H 236.66329185340686 149.3549460484379 184.56466416681513 H 0.0 **** 0.06
4024 H 235.31355690195585 149.68399562582044 185.67822189084555 H 0.0 **** 0.06
4025 H 235.1814124981636 150.13682983241313 183.96146917039374 H 0.0 **** 0.06
4026 C 84.06243501312179 56.44307704970035 96.13655774072325 C 0.0 **** -0.24
4027 H 83.53793772755179 57.38840235082503 95.99748135411309 H 0.0 **** 0.06
4028 H 85.11190950403633 56.56719862586917 95.86954332861555 H 0.0 **** 0.06
4029 H 83.61221233309408 55.681590646480885 95.49951255556076 H 0.0 **** 0.06
4030 H 83.98489861401615 56.13562749496268 97.17970847430954 H 0.0 **** 0.06
4031 C 14.460597792429297 73.5264975299703 0.9374684637752324 C 0.0 **** -0.24
4032 H 14.503845140822804 74.51515099834856 0.4793193983779389 H 0.0 **** 0.06
4033 H 14.561541958856182 73.6240425239638 2.019143939266172 H 0.0 **** 0.06
4034 H 15.271977780532822 72.91080123317846 0.5502202913523746 H 0.0 **** 0.06
4035 H 13.50434080504185 73.05919258796601 0.7030090193265721 H 0.0 **** 0.06
4036 C 97.96072935019859 30.368311477332185 240.35146785631866 C 0.0 **** -0.24
4037 H 97.49851569613551 29.81649671948398 239.53301102838208 H 0.0 **** 0.06
4038 H 98.76226526935929 29.77003135590823 240.78581062983818 H 0.0 **** 0.06
4039 H 97.21088180995886 30.5808019978231 241.11426338961877 H 0.0 **** 0.06
4040 H 98.36892173818518 31.305416759852022 239.97334191216083 H 0.0 **** 0.06
4041 C 132.05929819805783 221.20190152917917 50.43216330550203 C 0.0 **** -0.24
4042 H 131.71148634079026 220.53730870916496 51.22341855559861 H 0.0 **** 0.06
4043 H 133.14978172498323 221.2047930735822 50.41356493945372 H 0.0 **** 0.06
4044 H 131.6959277109929 222.21129284366737 50.62056876161958 H 0.0 **** 0.06
4045 H 131.6797999671261 220.85214369381296 49.472399213408465 H 0.0 **** 0.06
4046 C 31.126327203034705 8.794271080508707 203.15577720268595 C 0.0 **** -0.24
4047 H 30.90313166334471 9.563286156409305 202.41722109841174 H 0.0 **** 0.06
4048 H 30.406597237478067 8.855492960120301 203.97243271933115 H 0.0 **** 0.06
4049 H 32.13334422166453 8.947247424916242 203.54695434246347 H 0.0 **** 0.06
4050 H 31.06483047298137 7.812087377063534 202.68829149885124 H 0.0 **** 0.06
4051 C 227.20894045364327 136.58779027057986 204.14028988194727 C 0.0 **** -0.24
4052 H 228.09474741615978 136.1742618747578 204.62270138965312 H 0.0 **** 0.06
4053 H 227.35409068738716 136.59801332571806 203.0606008266417 H 0.0 **** 0.06
4054 H 227.04577469686353 137.60619076981686 204.494558056324 H 0.0 **** 0.06
4055 H 226.34224992362985 135.97421142614544 204.38584658459823 H 0.0 **** 0.06
4056 C 104.81874193063143 133.5881533325491 169.8554272152524 C 0.0 **** -0.24
4057 H 105.06880928866144 132.54401364911217 169.6679406687389 H 0.0 **** 0.06
4058 H 105.42440838128718 133.96426481494566 170.68049623142588 H 0.0 **** 0.06
4059 H 103.7629594451609 133.66867640175943 170.11310325691164 H 0.0 **** 0.06
4060 H 105.0200431255804 134.17717809205797 168.95981946344804 H 0.0 **** 0.06
4061 C 173.02690096907602 1.4923189008789564 204.03390235438513 C 0.0 **** -0.24
4062 H 173.77729782719464 1.2684016655551886 204.79237265709125 H 0.0 **** 0.06
4063 H 172.3816382400967 0.6246136106918527 203.89365572435793 H 0.0 **** 0.06
4064 H 173.52299957414056 1.732471176428021 203.09260715923455 H 0.0 **** 0.06
4065 H 172.4279867823568 2.343688541647211 204.3553569992328 H 0.0 **** 0.06
4066 C 54.511610163901764 100.79332861821558 21.214988081320115 C 0.0 **** -0.24
4067 H 54.135182967064935 101.76464360351551 20.89520952183031 H 0.0 **** 0.06
4068 H 53.679258163593374 100.09511936703163 21.311053538909135 H 0.0 **** 0.06
4069 H 55.012022294597955 100.89702964871111 22.177552552317565 H 0.0 **** 0.06
4070 H 55.21841770633742 100.41648000003235 20.475384274622712 H 0.0 **** 0.06
4071 C 19.886774525135834 175.2330727697933 248.28356954218697 C 0.0 **** -0.24
4072 H 19.389000728881555 175.48456269840406 247.34667379590007 H 0.0 **** 0.06
4073 H 19.204285252590807 174.6657239735037 248.91639835451394 H 0.0 **** 0.06
4074 H 20.180890854387727 176.14956686451205 248.79560248403192 H 0.0 **** 0.06
4075 H 20.772756586953022 174.63337357468032 248.07415551679884 H 0.0 **** 0.06
4076 C 131.23229013603634 34.108813389230065 103.75059981429175 C 0.0 **** -0.24
4077 H 131.2725422001384 35.15679102284524 103.45270180342982 H 0.0 **** 0.06
4078 H 130.3051924005963 33.66348949999404 103.38963999409307 H 0.0 **** 0.06
4079 H 131.26929492112592 34.0401421772397 104.83795002587289 H 0.0 **** 0.06
4080 H 132.08209154618675 33.57616875262306 103.32320675434627 H 0.0 **** 0.06
4081 C 159.97316216658936 145.41687675742443 186.43745120783376 C 0.0 **** -0.24
4082 H 159.270126096299 144.64710201407257 186.12026878279758 H 0.0 **** 0.06
4083 H 159.57932080041562 145.93131217140413 187.31348701950833 H 0.0 **** 0.06
4084 H 160.11602654107543 146.13373081060428 185.62867026774313 H 0.0 **** 0.06
4085 H 160.9292635135024 144.9547594709133 186.68624914071088 H 0.0 **** 0.06
4086 C 209.3938555060094 57.187944180982214 153.772382458066 C 0.0 **** -0.24
4087 H 208.81763717319672 58.0951681294606 153.59053991697877 H 0.0 **** 0.06
4088 H 210.41712642886137 57.33099971429374 153.42451997617258 H 0.0 **** 0.06
4089 H 208.93952040987247 56.355582869312286 153.23491168073753 H 0.0 **** 0.06
4090 H 209.40104863734553 56.97121482594238 154.84116411322768 H 0.0 **** 0.06
4091 C 202.0662628361709 222.55230368419006 169.64021651475332 C 0.0 **** -0.24
4092 H 202.85281674439992 222.62761816427488 168.88854952753934 H 0.0 **** 0.06
4093 H 201.2402870685717 221.96139048773415 169.24281721090162 H 0.0 **** 0.06
4094 H 201.7102412335674 223.55096700505632 169.89346493070155 H 0.0 **** 0.06
4095 H 202.4621065623092 222.06961476586125 170.53292010891397 H 0.0 **** 0.06
4096 C 180.22781554428826 214.42764671340507 76.15898928421046 C 0.0 **** -0.24
4097 H 180.01164379973642 215.4094079043278 75.73950353376648 H 0.0 **** 0.06
4098 H 179.68034559360652 214.30386435724176 77.09419309383719 H 0.0 **** 0.06
4099 H 181.2972277578349 214.3413430042683 76.34964538800469 H 0.0 **** 0.06
4100 H 179.92150150037497 213.65533497209458 75.45316221366235 H 0.0 **** 0.06
4101 C 229.95036481663038 190.95359882834322 195.26880121329742 C 0.0 **** -0.24
4102 H 230.8787893576029 190.38808865557195 195.18507133866046 H 0.0 **** 0.06
4103 H 230.1330136485547 191.86840330157895 195.83309524514874 H 0.0 **** 0.06
4104 H 229.20368323188342 190.35132643202758 195.78552854236693 H 0.0 **** 0.06
4105 H 229.58777942236748 191.20718176508936 194.27268069127638 H 0.0 **** 0.06
4106 C 132.75520035798178 223.16913471718073 62.086660564777816 C 0.0 **** -0.24
4107 H 133.690014467821 223.61735411319785 62.422497603971976 H 0.0 **** 0.06
4108 H 132.92180074525393 222.6453186303118 61.14479985414539 H 0.0 **** 0.06
4109 H 132.0099991170098 223.95143099345518 61.940242594758786 H 0.0 **** 0.06
4110 H 132.39938588512842 222.46393554948827 62.83720753556409 H 0.0 **** 0.06
4111 C 45.901507777460466 88.56419154430162 128.27648655113092 C 0.0 **** -0.24
4112 H 46.4145239216804 87.8468039234078 128.91706988446228 H 0.0 **** 0.06
4113 H 46.63691755076823 89.18213196279211 127.7619365855135 H 0.0 **** 0.06
4114 H 45.255660269536435 89.19691820312275 128.88522174806022 H 0.0 **** 0.06
4115 H 45.298371074316236 88.028775021727 127.54277690810338 H 0.0 **** 0.06
4116 C 59.31882972829757 22.44113926920484 201.96870478543966 C 0.0 **** -0.24
4117 H 60.05121524060215 21.645932933362616 202.11278784301226 H 0.0 **** 0.06
4118 H 59.03232599385339 22.48479298640703 200.9178320365638 H 0.0 **** 0.06
4119 H 59.75480045009286 23.393850623937 202.2668912357662 H 0.0 **** 0.06
4120 H 58.437479600467896 22.23780161977386 202.5773108367335 H 0.0 **** 0.06
4121 C 178.192391884789 223.56832187278889 240.4262279493007 C 0.0 **** -0.24
4122 H 179.0894674845535 224.1861786121206 240.44346088951175 H 0.0 **** 0.06
4123 H 178.40145441141632 222.61114017838815 240.9064952257761 H 0.0 **** 0.06
4124 H 177.8889166586895 223.39761399277648 239.39288038672453 H 0.0 **** 0.06
4125 H 177.3906985848748 224.07575480775813 240.9615271415484 H 0.0 **** 0.06
4126 C 242.06343286060968 127.19210426093736 222.25731708022332 C 0.0 **** -0.24
4127 H 242.97507824867472 126.85923878315674 221.76207085858093 H 0.0 **** 0.06
4128 H 241.8413310352965 126.52897043133981 223.09345694489457 H 0.0 **** 0.06
4129 H 241.23647793514843 127.17311936529609 221.54827710755015 H 0.0 **** 0.06
4130 H 242.20138824945877 128.20814217094912 222.62672585445904 H 0.0 **** 0.06
4131 C 155.76700532054957 56.349831222185514 155.95398229794762 C 0.0 **** -0.24
4132 H 154.9276062488031 56.323000221215864 155.25900037960943 H 0.0 **** 0.06
4133 H 156.3080009498927 55.404456709081074 155.9070213243275 H 0.0 **** 0.06
4134 H 155.39469817217065 56.5063693112472 156.96631662087947 H 0.0 **** 0.06
4135 H 156.43744082454913 57.165695045906176 155.68221763200353 H 0.0 **** 0.06
4136 C 219.223166105419 192.07038421795465 56.0231295959031 C 0.0 **** -0.24
4137 H 218.6924111740966 192.27061968042625 56.953956396535176 H 0.0 **** 0.06
4138 H 219.71724963338988 192.981139482876 55.68447359698604 H 0.0 **** 0.06
4139 H 218.5141974392278 191.73739730384875 55.265403583289356 H 0.0 **** 0.06
4140 H 219.96874960559003 191.29291843477807 56.190610258036344 H 0.0 **** 0.06
4141 C 216.32272576018653 141.0791112278558 7.17666674773173 C 0.0 **** -0.24
4142 H 215.89993316361148 141.55762971885585 6.293168561511962 H 0.0 **** 0.06
4143 H 215.52751091981597 140.87042736260443 7.89236568685476 H 0.0 **** 0.06
4144 H 217.05789592993628 141.74298502804376 7.632593252152262 H 0.0 **** 0.06
4145 H 216.80652413547526 140.1459038192132 6.887631045373908 H 0.0 **** 0.06
4146 C 67.9832345026363 108.97387105650878 92.67769994853967 C 0.0 **** -0.24
4147 H 67.92404936237776 108.69719113673654 91.62554078738759 H 0.0 **** 0.06
4148 H 67.78606071699917 110.04205006615595 92.78346714365003 H 0.0 **** 0.06
4149 H 68.98012879150434 108.7487815024713 93.05675408577846 H 0.0 **** 0.06
4150 H 67.2418034070466 108.40993135320764 93.24399008071615 H 0.0 **** 0.06
4151 C 184.28655875549316 18.78854511861047 115.07258530615178 C 0.0 **** -0.24
4152 H 184.7687297976704 18.27143514482478 115.90231172638877 H 0.0 **** 0.06
4153 H 184.99329873052824 19.48367986604714 114.61792183455589 H 0.0 **** 0.06
4154 H 183.421143932537 19.338534764690195 115.44217851735237 H 0.0 **** 0.06
4155 H 183.9635163166377 18.06006372483435 114.32868812655664 H 0.0 **** 0.06
4156 C 229.68589522716331 78.06578499607309 93.13952041531303 C 0.0 **** -0.24
4157 H 229.6890091321854 79.15109212306885 93.2438579416953 H 0.0 **** 0.06
4158 H 230.65075003076453 77.66773576743475 93.4537251076697 H 0.0 **** 0.06
4159 H 229.50512680013696 77.80263431986879 92.09719509707614 H 0.0 **** 0.06
4160 H 228.89671929334244 77.64413102466557 93.76226502254727 H 0.0 **** 0.06
4161 C 199.29205459515552 155.08216333216907 98.03680928791155 C 0.0 **** -0.24
4162 H 199.598443694543 154.42963974359455 97.2204538287761 H 0.0 **** 0.06
4163 H 200.1177310882437 155.19696066302978 98.73972142995737 H 0.0 **** 0.06
4164 H 198.4359523082586 154.64446071298397 98.5505104299369 H 0.0 **** 0.06
4165 H 199.01658069239124 156.0579751515829 97.63782184063245 H 0.0 **** 0.06
4166 C 58.755673464312025 140.77196244202136 28.615583254154217 C 0.0 **** -0.24
4167 H 59.6302862053187 140.42519797046643 28.065248335045354 H 0.0 **** 0.06
4168 H 58.538188623001275 141.803936277702 28.34023635448247 H 0.0 **** 0.06
4169 H 58.95491964254472 140.71544830181423 29.686286150903058 H 0.0 **** 0.06
4170 H 57.8999720482216 140.14178188037883 28.37172033716243 H 0.0 **** 0.06
4171 C 187.6076253765887 154.10740039254233 124.07887396980345 C 0.0 **** -0.24
4172 H 187.51718760070673 155.1124045998351 124.48992398140115 H 0.0 **** 0.06
4173 H 187.686674458562 153.3882297615305 124.89396624220845 H 0.0 **** 0.06
4174 H 188.49942198581286 154.04905268431418 123.45519302757867 H 0.0 **** 0.06
4175 H 186.72728056731714 153.88024164844978 123.47778704681792 H 0.0 **** 0.06
4176 C 116.38579775722431 229.3670056157212 238.38655221833056 C 0.0 **** -0.24
4177 H 117.05667107297003 230.1940592326659 238.62108555845992 H 0.0 **** 0.06
4178 H 116.25877127098468 229.2972639126985 237.30633884433905 H 0.0 **** 0.06
4179 H 115.41785454876074 229.54172981315276 238.85658410204047 H 0.0 **** 0.06
4180 H 116.81119632699054 228.4372662560661 238.76465584345158 H 0.0 **** 0.06
4181 C 1.0462877282408556 26.385147569489575 231.135951003687 C 0.0 **** -0.24
4182 H 0.557370805990189 25.767930242331076 231.89037369253634 H 0.0 **** 0.06
4183 H 2.053350954497347 26.63774768346724 231.47050955972577 H 0.0 **** 0.06
4184 H 0.47221840509476465 27.29947289052032 230.98670226546176 H 0.0 **** 0.06
4185 H 1.102055305342759 25.83398064644186 230.197139216962 H 0.0 **** 0.06
4186 C 62.77261315264738 39.805054459817185 10.56235356905077 C 0.0 **** -0.24
4187 H 61.80987302948947 39.91050871020245 11.061837722219096 H 0.0 **** 0.06
4188 H 63.52592334380162 39.49319456782109 11.286034255590437 H 0.0 **** 0.06
4189 H 63.06179071882045 40.7606641768195 10.125144269386823 H 0.0 **** 0.06
4190 H 62.69314585477795 39.05547617050094 9.775063339914567 H 0.0 **** 0.06
4191 C 174.26514485309454 216.45618835375328 190.84539889203614 C 0.0 **** -0.24
4192 H 173.40445721753343 215.9583809450366 191.29245274816597 H 0.0 **** 0.06
4193 H 174.54105127214103 217.31905469143948 191.45120653148535 H 0.0 **** 0.06
4194 H 174.00997810762468 216.78603802831108 189.8377706350936 H 0.0 **** 0.06
4195 H 175.1028131316653 215.76064852512724 190.7978408511454 H 0.0 **** 0.06
4196 C 91.49035913712984 122.09844965991624 242.21261630797704 C 0.0 **** -0.24
4197 H 90.58093965714428 121.60917520043384 241.86501844615023 H 0.0 **** 0.06
4198 H 92.00032879093871 122.56038773347274 241.36554265972734 H 0.0 **** 0.06
4199 H 92.14744672380695 121.36110547336958 242.67393184480073 H 0.0 **** 0.06
4200 H 91.234049695364 122.86533393612058 242.94365293303417 H 0.0 **** 0.06
4201 C 207.40129685392202 46.17718618877322 73.22875389349721 C 0.0 **** -0.24
4202 H 207.97927643430074 45.747052513945874 72.4107574409471 H 0.0 **** 0.06
4203 H 206.80610143839698 47.010034841505885 72.85328869472107 H 0.0 **** 0.06
4204 H 208.0784743822503 46.53402034828595 74.00446295115418 H 0.0 **** 0.06
4205 H 206.7403776386115 45.416557520845274 73.64452713785994 H 0.0 **** 0.06
4206 C 245.2509604992425 76.41575939172927 184.74760509452253 C 0.0 **** -0.24
4207 H 245.65775341963968 75.46635136809451 184.3983823854385 H 0.0 **** 0.06
4208 H 245.53705439290326 77.20856202230922 184.0551089863257 H 0.0 **** 0.06
4209 H 245.6457915137625 76.63795960894177 185.73793487908662 H 0.0 **** 0.06
4210 H 244.16430828136384 76.34976454446016 184.795429777134 H 0.0 **** 0.06
4211 C 77.30815697358005 227.98239953073968 13.073131370737173 C 0.0 **** -0.24
4212 H 76.44927309737983 228.62208411260588 13.27677982861141 H 0.0 **** 0.06
4213 H 78.11212706361326 228.22242906001705 13.76782804820786 H 0.0 **** 0.06
4214 H 77.64946204198131 228.1475733779044 12.050714611613756 H 0.0 **** 0.06
4215 H 77.0194230764323 226.93840628507004 13.195276406330237 H 0.0 **** 0.06
4216 C 246.17042828542446 196.57102041231886 179.06641897322055 C 0.0 **** -0.24
4217 H 246.86170411194973 196.50623164783968 178.22634236144324 H 0.0 **** 0.06
4218 H 246.65527475693057 197.08483425507418 179.89623630189985 H 0.0 **** 0.06
4219 H 245.88313943760596 195.5660774900413 179.37816795050117 H 0.0 **** 0.06
4220 H 245.28216032513535 197.12549935700866 178.76366048872154 H 0.0 **** 0.06
4221 C 92.06077896061063 30.40649101115787 148.60970986939853 C 0.0 **** -0.24
4222 H 91.72504385574152 29.379881436965917 148.75980750771507 H 0.0 **** 0.06
4223 H 92.57280468686798 30.484111959642817 147.65037144257533 H 0.0 **** 0.06
4224 H 92.74436716705762 30.686381306310352 149.41117986546854 H 0.0 **** 0.06
4225 H 91.19832308982308 31.074085041120114 148.617170795756 H 0.0 **** 0.06
4226 C 142.19211338297634 125.33120576079187 208.3862647719997 C 0.0 **** -0.24
4227 H 143.12629916099647 125.59635061067482 207.89107217216784 H 0.0 **** 0.06
4228 H 142.03570454471864 124.25446842008193 208.3146089846954 H 0.0 **** 0.06
4229 H 141.36523481881719 125.85262380289305 207.90345255125624 H 0.0 **** 0.06
4230 H 142.24237970387418 125.62283945710729 209.43520836001784 H 0.0 **** 0.06
4231 C 104.95441895635025 239.25039749891883 248.60116187845588 C 0.0 **** -0.24
4232 H 104.17607808386236 239.9562889369242 248.89101413928313 H 0.0 **** 0.06
4233 H 105.37861124559072 238.7907551674439 249.49454780293186 H 0.0 **** 0.06
4234 H 105.738710517338 239.77798569343256 248.0572721608861 H 0.0 **** 0.06
4235 H 104.52507484594042 238.47841725783715 247.96319659462546 H 0.0 **** 0.06
4236 C 164.4933649437304 34.88042405906994 248.5628952373154 C 0.0 **** -0.24
4237 H 163.84035280122484 35.65718319362303 248.9614688979118 H 0.0 **** 0.06
4238 H 165.0151057204272 35.2598412706368 247.68468472499475 H 0.0 **** 0.06
4239 H 163.89733579181933 34.011347505825086 248.28517998832922 H 0.0 **** 0.06
4240 H 165.22176963131847 34.59374790560133 249.3223924247327 H 0.0 **** 0.06
4241 C 19.2659143733121 201.0352138238734 46.67850342045392 C 0.0 **** -0.24
4242 H 19.211084532061747 199.94675045431927 46.66204893807574 H 0.0 **** 0.06
4243 H 19.808858893574396 201.38478152014164 45.80042412916481 H 0.0 **** 0.06
4244 H 19.786580928220246 201.3586246965042 47.58013600651623 H 0.0 **** 0.06
4245 H 18.25872345057917 201.44987977942594 46.672746417178544 H 0.0 **** 0.06
4246 C 7.386451632166924 11.37070516316372 161.57619494623626 C 0.0 **** -0.24
4247 H 6.472182068523438 11.013100328340244 161.10331175853864 H 0.0 **** 0.06
4248 H 7.854162725443061 12.123001476587731 160.94033398026406 H 0.0 **** 0.06
4249 H 8.072347790145301 10.534918836683616 161.71738012253624 H 0.0 **** 0.06
4250 H 7.146738273689152 11.810633370913465 162.54445950257573 H 0.0 **** 0.06
4251 C 123.79945815412668 240.55539893144856 168.42700444094325 C 0.0 **** -0.24
4252 H 123.67508152237073 240.4416001955379 167.3501526082749 H 0.0 **** 0.06
4253 H 123.39309862125953 241.51753544865235 168.73988273589345 H 0.0 **** 0.06
4254 H 124.86031724335936 240.51008201542223 168.67571903835338 H 0.0 **** 0.06
4255 H 123.27134800193889 239.7525484809526 168.94130434284133 H 0.0 **** 0.06
4256 C 190.28516328825006 236.67134055426482 115.04314469791265 C 0.0 **** -0.24
4257 H 189.89025969106777 237.32571378288432 114.26630726894408 H 0.0 **** 0.06
4258 H 189.67895590013234 235.76743878440323 115.0994630620811 H 0.0 **** 0.06
4259 H 190.257445898804 237.18861781621058 116.00305332162262 H 0.0 **** 0.06
4260 H 191.3149707307738 236.40404539646832 114.80466931975698 H 0.0 **** 0.06
4261 C 224.40966137284693 31.775916354357946 52.32532080119219 C 0.0 **** -0.24
4262 H 224.9967529689519 32.37851351233279 53.018641575325404 H 0.0 **** 0.06
4263 H 223.70829822915329 32.416527239725625 51.79132735850399 H 0.0 **** 0.06
4264 H 223.8590132485527 31.016468380613745 52.88000087382966 H 0.0 **** 0.06
4265 H 225.07584159517506 31.291547383840168 51.611112718958964 H 0.0 **** 0.06
4266 C 59.308746933254895 133.3156920947075 30.901880433462196 C 0.0 **** -0.24
4267 H 60.02193547675901 132.58598145636992 31.285428417361373 H 0.0 **** 0.06
4268 H 58.8836322096617 132.95122045232065 29.965800052647438 H 0.0 **** 0.06
4269 H 59.81849492375838 134.26308568903073 30.724074523752478 H 0.0 **** 0.06
4270 H 58.51168367913388 133.4631451524683 31.62998641809625 H 0.0 **** 0.06
4271 C 133.41257555028648 11.634769052096857 106.5193945469631 C 0.0 **** -0.24
4272 H 133.08148276792213 11.656467482267672 107.55805200947827 H 0.0 **** 0.06
4273 H 133.10376708975576 10.695593216350204 106.0594840541707 H 0.0 **** 0.06
4274 H 134.49811159348502 11.719608781602957 106.48194755215007 H 0.0 **** 0.06
4275 H 132.96446805907826 12.468972539868929 105.97875345067706 H 0.0 **** 0.06
4276 C 171.59542424529363 137.48881798432393 137.9610598435699 C 0.0 **** -0.24
4277 H 171.96570416016553 137.9809837545409 138.86029407718272 H 0.0 **** 0.06
4278 H 172.2361011809342 137.74417979433127 137.11704504598111 H 0.0 **** 0.06
4279 H 170.5771737634792 137.82167164963488 137.75887189449344 H 0.0 **** 0.06
4280 H 171.60169253490045 136.40859661659385 138.1089891547129 H 0.0 **** 0.06
4281 C 55.8901572410185 54.66315025204412 154.7097323704936 C 0.0 **** -0.24
4282 H 56.113317076912466 54.03405648851603 155.5718775442901 H 0.0 **** 0.06
4283 H 55.15961727176395 54.161269420111154 154.07416682180283 H 0.0 **** 0.06
4284 H 56.80478028637569 54.83976989986601 154.14281547719236 H 0.0 **** 0.06
4285 H 55.4841939645834 55.61542386485641 155.04989460556834 H 0.0 **** 0.06
4286 C 151.06301602182694 242.47855645752662 31.03664428990011 C 0.0 **** -0.24
4287 H 150.2794152973824 243.23716338964044 31.04111756573377 H 0.0 **** 0.06
4288 H 150.91804908961652 241.8021725766385 31.878410880679198 H 0.0 **** 0.06
4289 H 152.03624956236052 242.96288127554772 31.122151743728665 H 0.0 **** 0.06
4290 H 151.01687838344515 241.91610985503263 30.105014164670294 H 0.0 **** 0.06
4291 C 23.195364793081552 187.3672370363247 79.55783646893425 C 0.0 **** -0.24
4292 H 22.43298285539268 186.6179969700006 79.76785232413053 H 0.0 **** 0.06
4293 H 24.05206726800114 186.8900769863987 79.08282097752814 H 0.0 **** 0.06
4294 H 23.50998687532396 187.8365255791477 80.48980952378915 H 0.0 **** 0.06
4295 H 22.78476454691949 188.12526762318674 78.88967656946178 H 0.0 **** 0.06
4296 C 31.456146162111736 130.32498389568914 0.37135150904899206 C 0.0 **** -0.24
4297 H 30.694780076588557 130.0234280770258 1.0904032016887015 H 0.0 **** 0.06
4298 H 31.164929966263117 131.2672194359762 -0.0927895065434825 H 0.0 **** 0.06
4299 H 31.5553405004096 129.55774102606514 -0.3960567425581303 H 0.0 **** 0.06
4300 H 32.410936392613195 130.45165297542925 0.8839987095167601 H 0.0 **** 0.06
4301 C 3.98278593415165 194.86013926938307 195.39823013057185 C 0.0 **** -0.24
4302 H 3.255374118084859 194.57980515251742 194.63685151575368 H 0.0 **** 0.06
4303 H 3.487540408890254 195.44003555302422 196.17707205251173 H 0.0 **** 0.06
4304 H 4.7717797191184275 195.45983917100733 194.94430237718655 H 0.0 **** 0.06
4305 H 4.415821395010653 193.95936069992493 195.83414163037128 H 0.0 **** 0.06
4306 C 79.25030521450705 66.51593700252386 129.03873028577794 C 0.0 **** -0.24
4307 H 78.57012064917512 67.26218646932969 128.62877753905997 H 0.0 **** 0.06
4308 H 79.46362840053607 66.75384850645139 130.08068705097455 H 0.0 **** 0.06
4309 H 80.17896310363918 66.51856355173004 128.46705012499797 H 0.0 **** 0.06
4310 H 78.78865738155056 65.53042179761201 128.9778071542412 H 0.0 **** 0.06
4311 C 132.9675268668971 3.2303785722386067 60.66101717702443 C 0.0 **** -0.24
4312 H 133.7900630246695 3.838729881085385 61.037427226787685 H 0.0 **** 0.06
4313 H 133.3304230880196 2.5841460913451044 59.86097811875669 H 0.0 **** 0.06
4314 H 132.1818063346221 3.8799840421907135 60.275345623149775 H 0.0 **** 0.06
4315 H 132.56822840041963 2.618228890983147 61.469033922696156 H 0.0 **** 0.06
4316 C 61.43058284458968 92.08908678519191 27.832880005733372 C 0.0 **** -0.24
4317 H 61.26681826362494 93.15391148047127 27.673173773407555 H 0.0 **** 0.06
4318 H 61.38966244031374 91.87065090407856 28.900372798899937 H 0.0 **** 0.06
4319 H 62.40855021327576 91.8090344750035 27.440840335928314 H 0.0 **** 0.06
4320 H 60.656076300671174 91.52126754946161 27.315615552142177 H 0.0 **** 0.06
4321 C 171.42453451133179 82.38574098442115 100.93512154722052 C 0.0 **** -0.24
4322 H 172.1308677577445 83.21432188159253 100.97344385675714 H 0.0 **** 0.06
4323 H 170.6987455348937 82.48791903682945 101.74272515623986 H 0.0 **** 0.06
4324 H 171.96318530926283 81.44442080384803 101.04764359950829 H 0.0 **** 0.06
4325 H 170.9050827852544 82.39408125420584 99.9766347616887 H 0.0 **** 0.06
4326 C 182.16677230476705 85.65288588915675 83.44419419127459 C 0.0 **** -0.24
4327 H 181.40952247401947 84.87118097697069 83.50496173137182 H 0.0 **** 0.06
4328 H 182.48686316611307 85.92788034218248 84.44985291731587 H 0.0 **** 0.06
4329 H 181.7482961202598 86.52581988093382 82.94389279053857 H 0.0 **** 0.06
4330 H 183.02364061495157 85.28604029006982 82.87776538775026 H 0.0 **** 0.06
4331 C 122.78331412687737 159.68521096877294 229.04472406153917 C 0.0 **** -0.24
4332 H 122.74630595955958 160.7624074645775 228.8825245753169 H 0.0 **** 0.06
4333 H 122.81737898662686 159.1729209674142 228.08295895837057 H 0.0 **** 0.06
4334 H 121.89514512026221 159.36951736277257 229.59395711948576 H 0.0 **** 0.06
4335 H 123.67390247270453 159.43571701371428 229.6216111688712 H 0.0 **** 0.06
4336 C 91.17275234871397 51.31083426278488 121.45500862478778 C 0.0 **** -0.24
4337 H 91.63199175844903 52.21139049245781 121.86265210938501 H 0.0 **** 0.06
4338 H 91.79769676264667 50.447961031066455 121.6863845953871 H 0.0 **** 0.06
4339 H 91.07390117102793 51.41085690677207 120.3749287817511 H 0.0 **** 0.06
4340 H 90.18630153889055 51.17462614938589 121.89880894419642 H 0.0 **** 0.06
4341 C 203.9193672700144 109.35610213039666 17.587918985426853 C 0.0 **** -0.24
4342 H 204.38553945689227 109.43492492371277 16.605755033125632 H 0.0 **** 0.06
4343 H 203.98978661877396 110.31624484377693 18.100064144808954 H 0.0 **** 0.06
4344 H 204.43196940766433 108.59289780004934 18.173618370309242 H 0.0 **** 0.06
4345 H 202.870545743928 109.08228866113035 17.47120495634968 H 0.0 **** 0.06
4346 C 217.33001467837903 16.304138455668834 47.369864646438685 C 0.0 **** -0.24
4347 H 217.56615791955454 16.459591884851903 46.317158528748706 H 0.0 **** 0.06
4348 H 216.8873249362656 15.316365285045094 47.500576279570936 H 0.0 **** 0.06
4349 H 216.62452564658622 17.066118157475415 47.70009142010943 H 0.0 **** 0.06
4350 H 218.2433618659192 16.374175677575778 47.96054245260606 H 0.0 **** 0.06
4351 C 231.40308576845848 2.7635953626754315 134.7134929483269 C 0.0 **** -0.24
4352 H 231.47893529307672 2.9107876542844906 133.63602376062235 H 0.0 **** 0.06
4353 H 230.98637253504393 1.7777057404681216 134.9167767198795 H 0.0 **** 0.06
4354 H 230.75359226587935 3.528849354571861 135.13957990640077 H 0.0 **** 0.06
4355 H 232.39520970696526 2.8389107711036843 135.15949996257459 H 0.0 **** 0.06
4356 C 201.15064818931506 181.09998914386824 51.37171502626923 C 0.0 **** -0.24
4357 H 201.69086516701452 182.03856919616416 51.247704252907084 H 0.0 **** 0.06
4358 H 201.44599577791797 180.63384784451063 52.31216314729876 H 0.0 **** 0.06
4359 H 201.38789999391037 180.43166265000576 50.544386892316126 H 0.0 **** 0.06
4360 H 200.07861366837122 181.29749125801573 51.38394093743055 H 0.0 **** 0.06
4361 C 168.33680978139756 75.89192329851431 13.117687160799818 C 0.0 **** -0.24
4362 H 168.76067281488113 76.0792860044418 12.13130543421559 H 0.0 **** 0.06
4363 H 169.09007227030344 75.42259461473091 13.752011838957827 H 0.0 **** 0.06
4364 H 167.47599153435513 75.23001134756112 13.023654812212584 H 0.0 **** 0.06
4365 H 168.0234942703378 76.83578995629887 13.563554505906467 H 0.0 **** 0.06
4366 C 222.62969932506368 197.96831441934 158.21228258328338 C 0.0 **** -0.24
4367 H 221.75810012175714 197.32953651690406 158.35516081654373 H 0.0 **** 0.06
4368 H 223.44700275909136 197.61447388115147 158.839611465087 H 0.0 **** 0.06
4369 H 222.37793440837712 198.99270135809354 158.48603866364888 H 0.0 **** 0.06
4370 H 222.9348436871609 197.93660949888573 157.16546344736338 H 0.0 **** 0.06
4371 C 139.31298153559868 209.81235224632402 199.1153917407323 C 0.0 **** -0.24
4372 H 139.10788836954106 209.3137640100078 198.1675688976619 H 0.0 **** 0.06
4373 H 138.42266749315235 210.34805957468225 199.44509029328708 H 0.0 **** 0.06
4374 H 140.13390775533202 210.5170216606798 198.98403450383026 H 0.0 **** 0.06
4375 H 139.58851674104477 209.06888457680975 199.86383930145894 H 0.0 **** 0.06
4376 C 242.58774121556624 244.65192267564186 168.27191634709084 C 0.0 **** -0.24
4377 H 242.8506966462703 245.47741149334178 168.93341103554735 H 0.0 **** 0.06
4378 H 241.7711732210855 244.95763877599828 167.6165866888223 H 0.0 **** 0.06
4379 H 242.27428290285002 243.79442790285486 168.86804064438275 H 0.0 **** 0.06
4380 H 243.45413969232612 244.3793508490112 167.6701291438495 H 0.0 **** 0.06
4381 C 1.875050447009528 111.4466820970541 180.73205876074402 C 0.0 **** -0.24
4382 H 0.9269296596175565 111.84711437707526 180.3715611300472 H 0.0 **** 0.06
4383 H 2.273701614615632 112.10223257832408 181.50696804082833 H 0.0 **** 0.06
4384 H 2.582542906285582 111.39019630945799 179.90468801758556 H 0.0 **** 0.06
4385 H 1.7156383339943915 110.45046897564211 181.14388367217478 H 0.0 **** 0.06
4386 C 145.9275088405965 114.84858950125272 34.56940458043431 C 0.0 **** -0.24
4387 H 145.07371175925863 114.68276098220036 35.225478511883125 H 0.0 **** 0.06
4388 H 145.6520060615896 114.59693195324354 33.54477719645374 H 0.0 **** 0.06
4389 H 146.75796424634376 114.21759203841484 34.88766013769771 H 0.0 **** 0.06
4390 H 146.22686709380827 115.8948435644395 34.61882751993974 H 0.0 **** 0.06
4391 C 236.82519809889334 33.705926447465885 172.78940557865957 C 0.0 **** -0.24
4392 H 236.87911351781148 34.536650317469565 172.0861619912838 H 0.0 **** 0.06
4393 H 236.08222656844117 33.92608997277787 173.556255564217 H 0.0 **** 0.06
4394 H 237.79922469783338 33.56241128485826 173.257464500852 H 0.0 **** 0.06
4395 H 236.54105376090436 32.79796571528124 172.25633627298652 H 0.0 **** 0.06
4396 C 83.49102081703148 245.41923560045575 116.94016738527154 C 0.0 **** -0.24
4397 H 83.28807691461728 245.38540434059558 115.86949106023599 H 0.0 **** 0.06
4398 H 83.3646305575518 244.42237656364358 117.3648027002601 H 0.0 **** 0.06
4399 H 82.79658054271721 246.10896782975948 117.4197658894939 H 0.0 **** 0.06
4400 H 84.51332693624985 245.75828890430034 117.10614515508485 H 0.0 **** 0.06
4401 C 165.6014144607942 100.17660934889395 59.596634375883326 C 0.0 **** -0.24
4402 H 165.99195346776486 101.08631146168676 60.05396022252174 H 0.0 **** 0.06
4403 H 164.81440855914647 99.76210002410048 60.22730648377606 H 0.0 **** 0.06
4404 H 166.40598981148963 99.44886392119622 59.492679273788326 H 0.0 **** 0.06
4405 H 165.19385706679842 100.4107002900956 58.6137447788752 H 0.0 **** 0.06
4406 C 75.9995487702225 199.091021843594 177.57847044767414 C 0.0 **** -0.24
4407 H 76.53565906016408 199.56790141884917 178.39945656450038 H 0.0 **** 0.06
4408 H 75.4575532137161 198.22345683001333 177.95487094318491 H 0.0 **** 0.06
4409 H 76.71124259198803 198.77205070153144 176.81652892072407 H 0.0 **** 0.06
4410 H 75.29524018724595 199.80021701916732 177.14426521222714 H 0.0 **** 0.06
4411 C 28.743225100428177 52.26699331110299 153.30574895488073 C 0.0 **** -0.24
4412 H 27.6884429531229 52.26319046164417 153.57874294640305 H 0.0 **** 0.06
4413 H 29.117714492819886 51.243803932169385 153.28770033002056 H 0.0 **** 0.06
4414 H 29.305899581793966 52.84790236732029 154.03724582817154 H 0.0 **** 0.06
4415 H 28.86164803738356 52.715078044528624 152.3187182269939 H 0.0 **** 0.06
4416 C 196.2652801552556 228.4364885697896 214.40991740062537 C 0.0 **** -0.24
4417 H 196.17781146575066 227.47202885522046 214.91159685021654 H 0.0 **** 0.06
4418 H 197.24791512307706 228.86279837209992 214.6130283211358 H 0.0 **** 0.06
4419 H 195.49214719047498 229.10895919297377 214.77921705070867 H 0.0 **** 0.06
4420 H 196.14457508349906 228.29808178413475 213.33509256611433 H 0.0 **** 0.06
4421 C 162.66395198775135 7.8865490788309955 129.2912213774986 C 0.0 **** -0.24
4422 H 161.73882229928876 7.492117124747523 129.71290973810642 H 0.0 **** 0.06
4423 H 162.66709079759477 7.727725290173936 128.212417071638 H 0.0 **** 0.06
4424 H 163.5146545545509 7.372101561250176 129.73638140279843 H 0.0 **** 0.06
4425 H 162.73238973674862 8.954169568333697 129.5022458854991 H 0.0 **** 0.06
4426 C 47.22362648186166 33.452599800287175 15.11976173650001 C 0.0 **** -0.24
4427 H 47.64628650744318 32.513078402849345 14.76364993366117 H 0.0 **** 0.06
4428 H 46.88106255788385 34.04165270573813 14.26798699006008 H 0.0 **** 0.06
4429 H 47.98633108656132 34.0105585526272 15.664136881189208 H 0.0 **** 0.06
4430 H 46.383375649626146 33.24572033683168 15.781815349257641 H 0.0 **** 0.06
4431 C 146.7776857593307 154.92968909689165 96.21609977987887 C 0.0 **** -0.24
4432 H 146.71061276102677 155.510404518151 95.29614903074045 H 0.0 **** 0.06
4433 H 146.5684240139064 155.5755427974439 97.0683767774336 H 0.0 **** 0.06
4434 H 147.7807177588401 154.51557192287405 96.31102252919626 H 0.0 **** 0.06
4435 H 146.0504062233596 154.11799562054264 96.18682946585758 H 0.0 **** 0.06
4436 C 226.29615154726133 237.6887403319618 170.32097538108843 C 0.0 **** -0.24
4437 H 225.2194243683658 237.66290051040318 170.15452883977545 H 0.0 **** 0.06
4438 H 226.58221349727606 238.67080803858408 170.69866858671568 H 0.0 **** 0.06
4439 H 226.81321398691702 237.4957896601881 169.38026179307704 H 0.0 **** 0.06
4440 H 226.56983409682547 236.9250270746192 171.0484920374136 H 0.0 **** 0.06
4441 C 178.9178578641631 136.77783453495542 193.7607802454183 C 0.0 **** -0.24
4442 H 179.15888798322783 135.96144278121253 193.07948914649796 H 0.0 **** 0.06
4443 H 179.72051829815797 136.89019182719468 194.48968396777852 H 0.0 **** 0.06
4444 H 177.98399136003275 136.55602258364166 194.27708575341708 H 0.0 **** 0.06
4445 H 178.80967292433996 137.70310883350265 193.19441546438517 H 0.0 **** 0.06
4446 C 22.30182704642955 90.93384041701708 15.217888890927426 C 0.0 **** -0.24
4447 H 23.31825753020682 91.2163305098469 15.48935891467238 H 0.0 **** 0.06
4448 H 21.895490153316743 90.26476133131482 15.976401959754057 H 0.0 **** 0.06
4449 H 22.31188686967583 90.4258095481274 14.253225212856577 H 0.0 **** 0.06
4450 H 21.68145645770906 91.82781158922793 15.151840061109127 H 0.0 **** 0.06
4451 C 24.321963794778128 4.235413755199289 21.315039259509348 C 0.0 **** -0.24
4452 H 24.081005088926815 5.187162804508631 21.789273616043957 H 0.0 **** 0.06
4453 H 23.838334728659348 4.183928636015821 20.339360120751195 H 0.0 **** 0.06
4454 H 23.965409977883752 3.4175345669866886 21.94200384249457 H 0.0 **** 0.06
4455 H 25.40149103103151 4.15471016674104 21.191879055285284 H 0.0 **** 0.06
4456 C 197.6625943607645 177.89045414481262 219.86804923563523 C 0.0 **** -0.24
4457 H 197.30375946473617 176.9402171795898 220.2628907121789 H 0.0 **** 0.06
4458 H 198.75057460958703 177.8658740571961 219.79700432947845 H 0.0 **** 0.06
4459 H 197.3601168749655 178.69791701980725 220.53497700300375 H 0.0 **** 0.06
4460 H 197.2365849331145 178.0567045777485 218.87848603267705 H 0.0 **** 0.06
4461 C 88.22763129361002 137.75506051821054 239.9684925589895 C 0.0 **** -0.24
4462 H 87.41799933002255 137.14530283840026 240.36783728684935 H 0.0 **** 0.06
4463 H 88.51960776886256 138.50190758013994 240.70726368725826 H 0.0 **** 0.06
4464 H 87.89230447531997 138.2552009588363 239.05944413237717 H 0.0 **** 0.06
4465 H 89.0821483481443 137.11880041360195 239.7372561957511 H 0.0 **** 0.06
4466 C 19.65354553560789 98.62956193181358 41.630416931452814 C 0.0 **** -0.24
4467 H 20.018015789058097 99.61520565338978 41.33807043491839 H 0.0 **** 0.06
4468 H 19.148786189957207 98.16440690125745 40.78374676627813 H 0.0 **** 0.06
4469 H 18.95482846664362 98.73106811690411 42.4596391583987 H 0.0 **** 0.06
4470 H 20.495328841071796 98.00891639464959 41.93809786431797 H 0.0 **** 0.06
4471 C 4.139092571646131 82.3858050799106 186.39380862588766 C 0.0 **** -0.24
4472 H 4.91327192016621 83.14091080010198 186.25794378241977 H 0.0 **** 0.06
4473 H 3.347583528854159 82.54036352617038 185.66007114069066 H 0.0 **** 0.06
4474 H 3.7245162457041374 82.46760906135302 187.39854299237174 H 0.0 **** 0.06
4475 H 4.571165038743516 81.39389587938163 186.25955850515362 H 0.0 **** 0.06
4476 C 154.53507118123085 15.644897715015674 161.4356176382015 C 0.0 **** -0.24
4477 H 154.5528470005988 14.870889896336195 160.66831229709098 H 0.0 **** 0.06
4478 H 154.2354938384805 16.59280570706389 160.98792418365147 H 0.0 **** 0.06
4479 H 155.5280805951163 15.746220027586133 161.8719473856143 H 0.0 **** 0.06
4480 H 153.8225809031217 15.368227944438871 162.21316378935143 H 0.0 **** 0.06
4481 C 108.45725353401156 124.88745259240457 174.29181796492162 C 0.0 **** -0.24
4482 H 108.30614378973198 125.84655802531569 174.78664538698615 H 0.0 **** 0.06
4483 H 108.45744128789721 125.03245827739653 173.2110548573922 H 0.0 **** 0.06
4484 H 107.65190138485002 124.20598686010422 174.56709591000737 H 0.0 **** 0.06
4485 H 109.41266290497191 124.46466994642577 174.60199264774334 H 0.0 **** 0.06
4486 C 100.76861209778266 32.311515561207415 107.1529861784964 C 0.0 **** -0.24
4487 H 100.21994971634408 32.2383215353116 106.21369453038301 H 0.0 **** 0.06
4488 H 101.00890865742039 33.35631560174207 107.35243546473077 H 0.0 **** 0.06
4489 H 101.69031188313599 31.73347663480834 107.08108290054605 H 0.0 **** 0.06
4490 H 100.1554333774553 31.91775179879224 107.96301797818685 H 0.0 **** 0.06
4491 C 133.38161131642843 110.0770799478538 105.92906707270024 C 0.0 **** -0.24
4492 H 132.90054897668014 110.31275135022648 106.87842031870963 H 0.0 **** 0.06
4493 H 132.62472782342587 109.76837300522786 105.20661777333552 H 0.0 **** 0.06
4494 H 134.09629790848228 109.26826942312769 106.07533450644866 H 0.0 **** 0.06
4495 H 133.90137871269914 110.95942782064421 105.55714282812488 H 0.0 **** 0.06
4496 C 126.81366877991945 91.62548809293227 199.21413421173713 C 0.0 **** -0.24
4497 H 126.77522578166074 91.56754902370972 198.12626851644754 H 0.0 **** 0.06
4498 H 125.80120501519255 91.58034428404684 199.61608786128454 H 0.0 **** 0.06
4499 H 127.28176313220987 92.56449437210793 199.51047938135906 H 0.0 **** 0.06
4500 H 127.39654825248257 90.79018522518382 199.60243204862206 H 0.0 **** 0.06
4501 C 77.10102463736288 212.6772039769317 16.189320573874483 C 0.0 **** -0.24
4502 H 77.38522304317368 211.62452223619636 16.204972990136724 H 0.0 **** 0.06
4503 H 77.38712853681957 213.1161907184806 15.233889905644418 H 0.0 **** 0.06
4504 H 77.61057598434931 213.20164859348856 16.99786979393147 H 0.0 **** 0.06
4505 H 76.02307024704359 212.76429835519423 16.3218704186593 H 0.0 **** 0.06
4506 C 35.678440326906966 233.45137812216973 105.9695959996946 C 0.0 **** -0.24
4507 H 35.73230363179262 233.14373053090023 104.92574051924348 H 0.0 **** 0.06
4508 H 35.217168739544036 232.6579531701029 106.55859086211913 H 0.0 **** 0.06
4509 H 35.0815996235639 234.3589969144989 106.05074929191488 H 0.0 **** 0.06
4510 H 36.684202904737575 233.64320476600963 106.34355153948121 H 0.0 **** 0.06
4511 C 211.85001004529684 107.70981405342067 175.81777039219793 C 0.0 **** -0.24
4512 H 211.20868864825312 106.83125270713163 175.88030346771987 H 0.0 **** 0.06
4513 H 211.23334282504305 108.60862848036362 175.79904238446562 H 0.0 **** 0.06
4514 H 212.44711978162775 107.65971857126843 174.90653168187646 H 0.0 **** 0.06
4515 H 212.51129157732862 107.73947858518028 176.68386006525432 H 0.0 **** 0.06
4516 C 139.08503722792688 216.58398936141873 91.90814123514 C 0.0 **** -0.24
4517 H 140.0515542501817 216.8608012051887 91.48709418612398 H 0.0 **** 0.06
4518 H 139.23700502307415 216.03905806574454 92.83897753959266 H 0.0 **** 0.06
4519 H 138.54816528919505 215.95210409616965 91.19985378464824 H 0.0 **** 0.06
4520 H 138.50320633833707 217.48416770462836 92.1042058353936 H 0.0 **** 0.06
4521 C 244.0573766467486 218.86303736305882 234.996984779256 C 0.0 **** -0.24
4522 H 244.06119570352377 219.15540763544564 236.04715791268495 H 0.0 **** 0.06
4523 H 244.73158966740917 219.5111277927753 234.4367132642799 H 0.0 **** 0.06
4524 H 243.04759208864795 218.95572639138587 234.59820106427088 H 0.0 **** 0.06
4525 H 244.38987329398992 217.82834596217836 234.90761888228238 H 0.0 **** 0.06
4526 C 66.993947312897 160.14033986340195 189.09783802338117 C 0.0 **** -0.24
4527 H 66.0613029664265 160.6740766514719 189.2807728033568 H 0.0 **** 0.06
4528 H 67.48075119899133 160.55213280730038 188.21396013935842 H 0.0 **** 0.06
4529 H 66.78182622490979 159.08391008799381 188.9373658141336 H 0.0 **** 0.06
4530 H 67.65131430192562 160.2519694726004 189.9603089182575 H 0.0 **** 0.06
4531 C 210.30289843691 148.52452674491107 215.83259788828929 C 0.0 **** -0.24
4532 H 209.72009926428368 149.1756736442988 215.18151847416837 H 0.0 **** 0.06
4533 H 210.71858956466886 149.10908703664333 216.6533948923078 H 0.0 **** 0.06
4534 H 211.1130936907176 148.0706710327832 215.26279950088303 H 0.0 **** 0.06
4535 H 209.65822028919067 147.7412676631066 216.23337698144502 H 0.0 **** 0.06
4536 C 238.33517285617683 118.3650631193234 242.5605758489031 C 0.0 **** -0.24
4537 H 239.04228739782235 118.99819764144837 243.0975137236705 H 0.0 **** 0.06
4538 H 238.35927557675353 118.61363733289738 241.49882517022888 H 0.0 **** 0.06
4539 H 237.3310766231586 118.52958616209003 242.95078667246958 H 0.0 **** 0.06
4540 H 238.6108622320848 117.31876134737038 242.6954889593102 H 0.0 **** 0.06
4541 C 150.7060147826496 121.26937509614456 146.25173317859785 C 0.0 **** -0.24
4542 H 150.44424212097874 121.65552350553048 145.26654383138612 H 0.0 **** 0.06
4543 H 150.85312080247857 120.19118084940419 146.1914874230122 H 0.0 **** 0.06
4544 H 149.90101994513807 121.48815819105005 146.9531701579558 H 0.0 **** 0.06
4545 H 151.62565906435867 121.74322959674922 146.59492536391087 H 0.0 **** 0.06
4546 C 95.42300356707935 123.80718135440935 33.94377645940253 C 0.0 **** -0.24
4547 H 96.31789216570971 124.39792961346123 33.746412668551486 H 0.0 **** 0.06
4548 H 95.58728942662262 123.1808811081454 34.82014094904105 H 0.0 **** 0.06
4549 H 95.20669120830527 123.17683330205767 33.081401330676286 H 0.0 **** 0.06
4550 H 94.58084795314116 124.47483896091939 34.125962661497084 H 0.0 **** 0.06
4551 C 148.72851588555798 164.12521741727244 31.68850402040995 C 0.0 **** -0.24
4552 H 148.0826579493267 163.24972807999046 31.75082183227039 H 0.0 **** 0.06
4553 H 148.11520166922503 165.02271062150663 31.598658568625282 H 0.0 **** 0.06
4554 H 149.3749049264816 164.03838905323988 30.814730240079072 H 0.0 **** 0.06
4555 H 149.3401644787332 164.19152831868996 32.588579260137635 H 0.0 **** 0.06
4556 C 8.994809032710862 240.52828190112814 221.15201626771358 C 0.0 **** -0.24
4557 H 9.038995376600894 239.455403500199 221.34133367388 H 0.0 **** 0.06
4558 H 9.215611098825775 241.06798598784718 222.07285909593799 H 0.0 **** 0.06
4559 H 7.99725546509103 240.7939485436622 220.80340807040756 H 0.0 **** 0.06
4560 H 9.728394625777753 240.79219857985817 220.39021200557994 H 0.0 **** 0.06
4561 C 199.34008582022057 206.68963977362694 12.64847037138189 C 0.0 **** -0.24
4562 H 200.08561106476176 207.3753803868097 13.051762444180326 H 0.0 **** 0.06
4563 H 199.0695742589045 205.9588453515481 13.410889928434585 H 0.0 **** 0.06
4564 H 199.75241000306622 206.17453880647992 11.780778414420851 H 0.0 **** 0.06
4565 H 198.4537134863764 207.25083479434775 12.35217861261512 H 0.0 **** 0.06
4566 C 148.44568702304355 44.51413641125086 47.34193556812025 C 0.0 **** -0.24
4567 H 147.40771290924465 44.803945931545485 47.181256567403395 H 0.0 **** 0.06
4568 H 148.61138969480191 43.51808374874852 46.92954946005621 H 0.0 **** 0.06
4569 H 148.65973557574836 44.505902879526815 48.41038163079844 H 0.0 **** 0.06
4570 H 149.1026138090199 45.22758729058771 46.845048655983916 H 0.0 **** 0.06
4571 C 20.52039270886067 112.72367016264604 27.04878879254693 C 0.0 **** -0.24
4572 H 20.844623449202416 113.37665376691797 27.85882052301079 H 0.0 **** 0.06
4573 H 19.51711296412141 112.35284978314866 27.261954415426743 H 0.0 **** 0.06
4574 H 21.207923009434822 111.88269920077772 26.962908128950488 H 0.0 **** 0.06
4575 H 20.510682714906594 113.28368953637283 26.113210578242814 H 0.0 **** 0.06
4576 C 114.39004579224152 25.020526792176923 127.25386548335854 C 0.0 **** -0.24
4577 H 113.46132824873598 25.59049846450337 127.25111243765599 H 0.0 **** 0.06
4578 H 115.1701264592929 25.593164291708774 126.75202684612623 H 0.0 **** 0.06
4579 H 114.23786468561082 24.077058912591596 126.72977118011252 H 0.0 **** 0.06
4580 H 114.69005593601162 24.82041003940786 128.2819222700982 H 0.0 **** 0.06
4581 C 241.073683368223 169.3525415705835 200.87014740780822 C 0.0 **** -0.24
4582 H 241.91917992713422 168.68534725946142 200.70598018197308 H 0.0 **** 0.06
4583 H 240.9430606495929 169.99366064483684 199.99731659668248 H 0.0 **** 0.06
4584 H 241.2627849977467 169.9695725424147 201.74873372995765 H 0.0 **** 0.06
4585 H 240.1701488751393 168.7626902199236 201.02695104494944 H 0.0 **** 0.06
4586 C 135.57702420423303 152.2179643870974 233.99390685355922 C 0.0 **** -0.24
4587 H 135.51167526760537 153.18485682527262 234.4920223928 H 0.0 **** 0.06
4588 H 134.84405541816926 152.17548526027042 233.18780707144845 H 0.0 **** 0.06
4589 H 135.3732459506092 151.4239067863821 234.71312902447494 H 0.0 **** 0.06
4590 H 136.57713910147942 152.0878826849874 233.58265207315696 H 0.0 **** 0.06
4591 C 202.95789320896395 23.163756850252582 155.9786664846542 C 0.0 **** -0.24
4592 H 202.59296812612317 24.186178261319043 156.07764483180628 H 0.0 **** 0.06
4593 H 203.56060109983395 22.90806934944382 156.84945041740286 H 0.0 **** 0.06
4594 H 203.56637619132368 23.081995023637347 155.07746836958722 H 0.0 **** 0.06
4595 H 202.11077933337373 22.48114613985092 155.90845770571806 H 0.0 **** 0.06
4596 C 10.438627823044811 49.867871567343556 9.890278709114824 C 0.0 **** -0.24
4597 H 11.305886265051896 49.827113104705134 10.549057965380968 H 0.0 **** 0.06
4598 H 10.322207019152046 50.88068362596577 9.504971693253111 H 0.0 **** 0.06
4599 H 9.545438605223836 49.58621310662738 10.44782520986766 H 0.0 **** 0.06
4600 H 10.581403757217544 49.17678314202678 9.059842447083582 H 0.0 **** 0.06
4601 C 179.2014091271032 169.18617378813812 229.41454401060548 C 0.0 **** -0.24
4602 H 179.45950658510867 169.0136673348653 228.3696168379295 H 0.0 **** 0.06
4603 H 180.08019843368137 169.54559999219248 229.95046633059926 H 0.0 **** 0.06
4604 H 178.85911133579413 168.2533871209068 229.8627335071874 H 0.0 **** 0.06
4605 H 178.4087801363599 169.93058204665726 229.4751837422675 H 0.0 **** 0.06
4606 C 170.5427461751402 162.34846897285286 46.66960779517811 C 0.0 **** -0.24
4607 H 169.86054703361526 161.51841408516566 46.855340913894224 H 0.0 **** 0.06
4608 H 171.02534633044354 162.6386947844861 47.60244573919741 H 0.0 **** 0.06
4609 H 169.98370660379484 163.1943387989984 46.26991721393222 H 0.0 **** 0.06
4610 H 171.30019621871725 162.04025990327102 45.94830121766134 H 0.0 **** 0.06
4611 C 24.278451658566453 165.80409113717892 64.24079526321069 C 0.0 **** -0.24
4612 H 24.397167467388144 166.01783206665175 63.17866347340768 H 0.0 **** 0.06
4613 H 23.985504960787964 164.76168637123916 64.37071876753029 H 0.0 **** 0.06
4614 H 23.50776733636515 166.45332508507127 64.65700378207745 H 0.0 **** 0.06
4615 H 25.221649918157354 165.98376978400202 64.75506579442569 H 0.0 **** 0.06
4616 C 29.257065325867558 38.22486658082188 169.9967545986729 C 0.0 **** -0.24
4617 H 30.333198374528536 38.18523556697254 169.82882720142803 H 0.0 **** 0.06
4618 H 28.944311752590806 37.33852274688421 170.54974410160605 H 0.0 **** 0.06
4619 H 28.74175598610543 38.25656753410922 169.03781096963195 H 0.0 **** 0.06
4620 H 29.011493336533263 39.11772315194354 170.5715024633002 H 0.0 **** 0.06
4621 C 145.86427425407595 138.42412579042414 231.58132065523043 C 0.0 **** -0.24
4622 H 145.21413185125377 137.70800155790113 232.08362087023391 H 0.0 **** 0.06
4623 H 146.8252355436352 138.46547368053916 232.09585766901313 H 0.0 **** 0.06
4624 H 145.39976107152398 139.41025127494703 231.59711953488628 H 0.0 **** 0.06
4625 H 146.01824667918643 138.11147321763886 230.54821154355636 H 0.0 **** 0.06
4626 C 202.68528877951064 189.0162349482871 9.359431517213878 C 0.0 **** -0.24
4627 H 201.82222752488934 188.4290338408474 9.673247864480217 H 0.0 **** 0.06
4628 H 203.17484072352835 188.5210696245629 8.519353669944394 H 0.0 **** 0.06
4629 H 203.38726992156506 189.10388794086435 10.1885527364565 H 0.0 **** 0.06
4630 H 202.35648109602056 190.01030050641953 9.054458151122944 H 0.0 **** 0.06
4631 C 218.480102601703 163.3467799458049 16.706405230061236 C 0.0 **** -0.24
4632 H 218.37513338982382 162.26169799491709 16.671588447086407 H 0.0 **** 0.06
4633 H 218.40291020549498 163.75063834145183 15.696869544483306 H 0.0 **** 0.06
4634 H 219.4511670374382 163.60427401062003 17.12838062009135 H 0.0 **** 0.06
4635 H 217.6905702392566 163.76773976144744 17.32781655749288 H 0.0 **** 0.06
4636 C 62.767507594975115 67.34343538920356 44.012234976186676 C 0.0 **** -0.24
4637 H 63.79364051124216 67.64609677746728 43.803524910883596 H 0.0 **** 0.06
4638 H 62.656748141633585 66.27713275915147 43.81742069253568 H 0.0 **** 0.06
4639 H 62.08615542524731 67.90294867461685 43.37193062249918 H 0.0 **** 0.06
4640 H 62.53440368238239 67.54887331949016 45.05672881820436 H 0.0 **** 0.06
4641 C 129.77835761041848 41.883338176698004 39.91024079020278 C 0.0 **** -0.24
4642 H 129.71115713363892 41.662020512214866 40.97616769759051 H 0.0 **** 0.06
4643 H 130.82397782088904 41.87056026536706 39.60273035305363 H 0.0 **** 0.06
4644 H 129.3545252391919 42.868325971549126 39.717441092391454 H 0.0 **** 0.06
4645 H 129.22372125994153 41.13226290660347 39.34836089197853 H 0.0 **** 0.06
4646 C 145.00881102335075 164.14272345227172 81.13127299497327 C 0.0 **** -0.24
4647 H 144.6271917202214 164.84761252514102 80.3925181824537 H 0.0 **** 0.06
4648 H 144.18254060642036 163.76120387232714 81.73075825166765 H 0.0 **** 0.06
4649 H 145.72538946183465 164.6490676895914 81.77920542918352 H 0.0 **** 0.06
4650 H 145.50230777608357 163.31493367410073 80.6218874742984 H 0.0 **** 0.06
4651 C 233.29035582856847 168.90123690357822 177.58863072163507 C 0.0 **** -0.24
4652 H 234.3765815476404 168.9897626376791 177.5562508328673 H 0.0 **** 0.06
4653 H 232.85422657157 169.49048473326962 176.78117369605127 H 0.0 **** 0.06
4654 H 232.92489058372428 169.2711073108377 178.54710065583427 H 0.0 **** 0.06
4655 H 233.00714781400654 167.85641359805015 177.46986191686258 H 0.0 **** 0.06
4656 C 133.81499341437979 162.24498013787382 158.4090577627376 C 0.0 **** -0.24
4657 H 133.72704868529652 161.59467268556244 157.53896437281043 H 0.0 **** 0.06
4658 H 134.79851867895283 162.71598986117027 158.41272847194654 H 0.0 **** 0.06
4659 H 133.690701487817 161.65474255018282 159.3178815589428 H 0.0 **** 0.06
4660 H 133.04363546721405 163.01430328952455 158.36805314203153 H 0.0 **** 0.06
4661 C 216.90146430668557 7.590125898332218 111.61526671963236 C 0.0 **** -0.24
4662 H 217.8106741065941 7.390023098214641 111.04915545030465 H 0.0 **** 0.06
4663 H 216.23954469677705 6.725208664821338 111.55673302614755 H 0.0 **** 0.06
4664 H 216.3984308881264 8.46179102264395 111.19802596355504 H 0.0 **** 0.06
4665 H 217.157589134925 7.781286097572291 112.6569583301725 H 0.0 **** 0.06
4666 C 149.02679292742238 138.6250051331388 73.3948663653419 C 0.0 **** -0.24
4667 H 148.34600052355734 137.82885034192427 73.09418577587533 H 0.0 **** 0.06
4668 H 149.64528741843512 138.91507833986051 72.54470950837359 H 0.0 **** 0.06
4669 H 149.66537524908085 138.2706865125367 74.20413486466461 H 0.0 **** 0.06
4670 H 148.45136424677452 139.48587949175615 73.73541407436667 H 0.0 **** 0.06
4671 C 129.75840408075177 60.012906324539216 243.48293804225744 C 0.0 **** -0.24
4672 H 130.44359939456052 59.985712893937574 244.32924085587166 H 0.0 **** 0.06
4673 H 129.92627067723234 59.140544760713425 242.85129916016308 H 0.0 **** 0.06
4674 H 129.93128014581512 60.920392793821264 242.9046260668369 H 0.0 **** 0.06
4675 H 128.73038735471948 60.00534178024637 243.8473237895284 H 0.0 **** 0.06
4676 C 167.029665585521 185.21083022461667 140.3825960059568 C 0.0 **** -0.24
4677 H 168.07014339614915 185.029326028944 140.11602573953166 H 0.0 **** 0.06
4678 H 166.91864719483019 185.16403171698383 141.46579561040411 H 0.0 **** 0.06
4679 H 166.39796977744422 184.45315655887907 139.9194323342883 H 0.0 **** 0.06
4680 H 166.73064032595283 186.19781012115024 140.02849693069047 H 0.0 **** 0.06
4681 C 73.66628609896361 178.93405240444767 125.74031596158088 C 0.0 **** -0.24
4682 H 74.74901858762618 178.833675582118 125.66460321012482 H 0.0 **** 0.06
4683 H 73.23705828065553 179.00672252270238 124.74021440738142 H 0.0 **** 0.06
4684 H 73.42381669595818 179.83287211374923 126.30687424056711 H 0.0 **** 0.06
4685 H 73.25626533334076 178.06195564399283 126.24962704615996 H 0.0 **** 0.06
4686 C 99.37409521231928 143.90149983832922 38.53595963998373 C 0.0 **** -0.24
4687 H 98.65127294714145 144.7116636030178 38.44232625089177 H 0.0 **** 0.06
4688 H 99.85539527393456 143.73128527946577 37.57233739330826 H 0.0 **** 0.06
4689 H 98.86134289900971 142.99222147811298 38.852099661060365 H 0.0 **** 0.06
4690 H 100.1267870615898 144.16928796583613 39.27672819834899 H 0.0 **** 0.06
4691 C 220.94079233028464 67.61566358908104 85.90943860435735 C 0.0 **** -0.24
4692 H 221.4670474647813 66.66165098040352 85.94536975535556 H 0.0 **** 0.06
4693 H 221.55587866496137 68.38686743568843 86.37338148784167 H 0.0 **** 0.06
4694 H 219.99688750029733 67.53042018464924 86.44673348740992 H 0.0 **** 0.06
4695 H 220.74479049980891 67.88323972633191 84.87062203127445 H 0.0 **** 0.06
4696 C 207.87855876419954 34.24455720222352 169.55583693246362 C 0.0 **** -0.24
4697 H 208.5260466518128 35.00149412273534 169.11261857994006 H 0.0 **** 0.06
4698 H 208.06594091633343 33.28251469263904 169.0780747368269 H 0.0 **** 0.06
4699 H 206.83676252196898 34.5274306159842 169.40946829633467 H 0.0 **** 0.06
4700 H 208.0885868566018 34.16795984088027 170.62309445649458 H 0.0 **** 0.06
4701 C 187.61922301461954 56.71401798337459 22.6651707338946 C 0.0 **** -0.24
4702 H 186.81827640986532 56.61673920981394 23.39807314609922 H 0.0 **** 0.06
4703 H 187.87583031642598 57.76700575810858 22.546870213748804 H 0.0 **** 0.06
4704 H 187.287409653314 56.311088295262834 21.707838431670467 H 0.0 **** 0.06
4705 H 188.49445790340283 56.16255233555111 23.0085584119212 H 0.0 **** 0.06
4706 C 231.68712032754382 198.30327428332495 154.52456021384202 C 0.0 **** -0.24
4707 H 232.48920501935115 198.1479112837591 153.80321698640182 H 0.0 **** 0.06
4708 H 230.8384671910432 198.77382459178745 154.02736423911426 H 0.0 **** 0.06
4709 H 232.0420210706568 198.9483681730474 155.32846126964273 H 0.0 **** 0.06
4710 H 231.3798159113819 197.34286287503113 154.9382357995725 H 0.0 **** 0.06
4711 C 81.26645654770158 99.48043896799263 122.65210908180583 C 0.0 **** -0.24
4712 H 81.05846448936762 98.43250829291489 122.86677898447584 H 0.0 **** 0.06
4713 H 82.31949216848489 99.6884481354756 122.83986884818648 H 0.0 **** 0.06
4714 H 80.65115521837885 100.11137113931593 123.29394351796526 H 0.0 **** 0.06
4715 H 81.03442892256709 99.69021431828236 121.60744594807778 H 0.0 **** 0.06
4716 C 163.03161337473026 239.6233478029982 162.26064422886412 C 0.0 **** -0.24
4717 H 163.95471964816883 240.19249451594513 162.15355365749502 H 0.0 **** 0.06
4718 H 162.25287806984676 240.2672280541493 162.67052851137515 H 0.0 **** 0.06
4719 H 163.2002634823959 238.78207546153797 162.93372339849378 H 0.0 **** 0.06
4720 H 162.71902935509908 239.25119992163513 161.2855802602325 H 0.0 **** 0.06
4721 C 236.3813503316293 87.36537072464247 123.91962274904299 C 0.0 **** -0.24
4722 H 236.72656010458638 86.3361864645199 123.82560396409477 H 0.0 **** 0.06
4723 H 235.3469118652931 87.37153155756437 124.26548932497843 H 0.0 **** 0.06
4724 H 236.4441229828338 87.85954285689232 122.95081004588599 H 0.0 **** 0.06
4725 H 237.00746005185778 87.89423607721332 124.6390125162429 H 0.0 **** 0.06
4726 C 107.07319876457927 168.08478059388736 138.7079686108596 C 0.0 **** -0.24
4727 H 106.3778671205323 168.77919142591645 138.23756234047457 H 0.0 **** 0.06
4728 H 106.57007447382662 167.1348026405492 138.8895544302078 H 0.0 **** 0.06
4729 H 107.41667524560535 168.5002637553541 139.65558310166236 H 0.0 **** 0.06
4730 H 107.9275056804236 167.92426836648335 138.05026648362502 H 0.0 **** 0.06
4731 C 89.32419779426473 196.26627259691364 48.09643570955987 C 0.0 **** -0.24
4732 H 89.58200576894913 197.0000556587263 47.33324108936628 H 0.0 **** 0.06
4733 H 88.23982538190384 196.19980567230104 48.18474305961078 H 0.0 **** 0.06
4734 H 89.74970657463015 196.5720231673564 49.05219322833389 H 0.0 **** 0.06
4735 H 89.72631315963437 195.2927206773317 47.81428420474137 H 0.0 **** 0.06
4736 C 29.517648000927366 168.24904778321863 51.963076999548406 C 0.0 **** -0.24
4737 H 28.490014178025177 167.98607837280025 51.7119009936672 H 0.0 **** 0.06
4738 H 29.516947530617117 169.03317174560033 52.721481712593004 H 0.0 **** 0.06
4739 H 30.029331754655843 168.60745242950853 51.06990993009663 H 0.0 **** 0.06
4740 H 30.033038211541182 167.369738579472 52.34960620306828 H 0.0 **** 0.06
4741 C 156.09650486751423 32.228336731598134 99.29684762184448 C 0.0 **** -0.24
4742 H 155.1348690508882 32.004016840458846 98.83647418537947 H 0.0 **** 0.06
4743 H 156.26368084849622 33.30545420954479 99.2834423559483 H 0.0 **** 0.06
4744 H 156.89066270472327 31.730544233230844 98.74116829070786 H 0.0 **** 0.06
4745 H 156.09737176627345 31.874316122251216 100.32823224227946 H 0.0 **** 0.06
4746 C 37.19723237185761 27.094306502755217 131.36194210791137 C 0.0 **** -0.24
4747 H 36.482324199599134 27.799494523667065 130.9374274034964 H 0.0 **** 0.06
4748 H 37.11671555619577 27.104141245202925 132.44901243278835 H 0.0 **** 0.06
4749 H 38.20765618858994 27.381132077684967 131.06940941572702 H 0.0 **** 0.06
4750 H 36.98331586691228 26.092372950100753 130.9899643491432 H 0.0 **** 0.06
4751 C 5.587186228257806 0.5564806574111287 106.60314441814486 C 0.0 **** -0.24
4752 H 4.529745361821071 0.6675004898468586 106.36538199580153 H 0.0 **** 0.06
4753 H 6.080637067693033 1.5248656123256126 106.52454791209553 H 0.0 **** 0.06
4754 H 6.046006640862586 -0.142984379136621 105.90298295170189 H 0.0 **** 0.06
4755 H 5.6926882429672645 0.17481166618068755 107.61871651106404 H 0.0 **** 0.06
4756 C 98.59942289119286 84.60103225528701 209.02949897807167 C 0.0 **** -0.24
4757 H 99.35783606672462 83.90018956615774 208.6780710813948 H 0.0 **** 0.06
4758 H 98.74942050419833 84.79721162324455 210.0905733999097 H 0.0 **** 0.06
4759 H 97.60920410334057 84.1711511011606 208.8742265478289 H 0.0 **** 0.06
4760 H 98.68123901960107 85.53390389617348 208.4719308753987 H 0.0 **** 0.06
4761 C 247.83916924213696 51.993054818085426 85.95689187456802 C 0.0 **** -0.24
4762 H 248.49767201168763 51.27008216326969 85.47612352534227 H 0.0 **** 0.06
4763 H 247.81365367122885 51.80397617136887 87.03014570835373 H 0.0 **** 0.06
4764 H 246.83352830195804 51.896722956557355 85.5474177697669 H 0.0 **** 0.06
4765 H 248.21102918523025 53.00026943397788 85.77381415460147 H 0.0 **** 0.06
4766 C 96.46483253985872 63.5348611555614 25.132994713243917 C 0.0 **** -0.24
4767 H 96.11575044141077 64.32795380102357 25.79522301673903 H 0.0 **** 0.06
4768 H 97.25905856911336 63.91866966256961 24.493613291971243 H 0.0 **** 0.06
4769 H 95.63618914692853 63.18710025621621 24.51637079993067 H 0.0 **** 0.06
4770 H 96.84651267640177 62.705993458911166 25.72892019617271 H 0.0 **** 0.06
4771 C 118.16549881404947 157.68001612373422 235.27833177144515 C 0.0 **** -0.24
4772 H 118.47584989774762 156.74016383617823 235.73398563489604 H 0.0 **** 0.06
4773 H 117.64353803967035 158.28650407906053 236.01884637917948 H 0.0 **** 0.06
4774 H 117.4996290945501 157.47503218136748 234.44087570946425 H 0.0 **** 0.06
4775 H 119.0438064504483 158.2173661800836 234.92169726023803 H 0.0 **** 0.06
4776 C 116.52625792244012 182.06634715072482 112.05638798393318 C 0.0 **** -0.24
4777 H 116.73191967098066 180.99628204590724 112.02696882934396 H 0.0 **** 0.06
4778 H 115.44769915002834 182.22968811346908 112.05584800528217 H 0.0 **** 0.06
4779 H 116.96619778956469 182.54571779961208 111.18174904949677 H 0.0 **** 0.06
4780 H 116.95816058395619 182.49502835257806 112.96133997069091 H 0.0 **** 0.06
4781 C 25.969374235822755 226.02466661915292 147.4175477806373 C 0.0 **** -0.24
4782 H 25.498229031607167 226.95663837688107 147.10270746604397 H 0.0 **** 0.06
4783 H 26.99136382989971 225.9902858124325 147.0406024329026 H 0.0 **** 0.06
4784 H 25.405614694035904 225.18125768190185 147.01988950421753 H 0.0 **** 0.06
4785 H 25.98111353867867 225.97453018643603 148.50649089178043 H 0.0 **** 0.06
4786 C 229.9451011456227 32.910413629408595 188.95444337634223 C 0.0 **** -0.24
4787 H 230.5413821244684 33.822119663359885 189.00420965016275 H 0.0 **** 0.06
4788 H 230.5685980220989 32.0878892019264 188.60190147150635 H 0.0 **** 0.06
4789 H 229.11382864236126 33.05756667194643 188.26449440559077 H 0.0 **** 0.06
4790 H 229.55776857969718 32.675062596142226 189.94588068959962 H 0.0 **** 0.06
4791 C 115.71932024214652 132.8572899040348 170.03781263313311 C 0.0 **** -0.24
4792 H 115.58342347339698 133.78797096948148 170.58962908974206 H 0.0 **** 0.06
4793 H 114.74740237863509 132.48081389924718 169.71631758000476 H 0.0 **** 0.06
4794 H 116.19945878546659 132.12003164286392 170.68142649775982 H 0.0 **** 0.06
4795 H 116.34511992972844 133.04059331275855 169.1645227739972 H 0.0 **** 0.06
4796 C 29.428787016345183 212.34108833530613 171.55242024486458 C 0.0 **** -0.24
4797 H 28.818203442200613 212.83057271225354 172.31094071883538 H 0.0 **** 0.06
4798 H 29.0735477498947 211.32098836752095 171.4023845820926 H 0.0 **** 0.06
4799 H 30.46720341126523 212.31967390948773 171.88039183654072 H 0.0 **** 0.06
4800 H 29.35412917372159 212.89244420018895 170.6154306610688 H 0.0 **** 0.06
4801 C 1.5660696870568245 145.34387233413707 27.887128816373675 C 0.0 **** -0.24
4802 H 2.420114846590053 146.01916820845972 27.844715280481708 H 0.0 **** 0.06
4803 H 0.7438992514826168 145.830273641227 28.412691485185107 H 0.0 **** 0.06
4804 H 1.8480386775082422 144.43382478213397 28.417000984002158 H 0.0 **** 0.06
4805 H 1.2520074711978566 145.09137758775483 26.87459541351663 H 0.0 **** 0.06
4806 C 222.5599204337192 129.18970760116568 217.36381251134162 C 0.0 **** -0.24
4807 H 223.47014177578558 129.31425599157205 217.95167507223954 H 0.0 **** 0.06
4808 H 221.71772742931722 129.00970780841715 218.0327628813444 H 0.0 **** 0.06
4809 H 222.67741864231863 128.3410916463266 216.6900130605853 H 0.0 **** 0.06
4810 H 222.37734275420547 130.09296486255303 216.78270901975296 H 0.0 **** 0.06
4811 C 217.27646002234184 61.92753196450141 218.39270026505528 C 0.0 **** -0.24
4812 H 218.25968784224057 62.35311846534475 218.59047726717262 H 0.0 **** 0.06
4813 H 217.37243818695757 60.85642370374441 218.21435269271632 H 0.0 **** 0.06
4814 H 216.84404927464115 62.40463761044825 217.5136025968174 H 0.0 **** 0.06
4815 H 216.62802261662307 62.095419480964864 219.25252308417194 H 0.0 **** 0.06
4816 C 247.7402250714968 225.7680737356454 237.79588495147289 C 0.0 **** -0.24
4817 H 246.92303321749313 226.48888682628794 237.83646253273298 H 0.0 **** 0.06
4818 H 247.43817520567245 224.91085492971712 237.19360646676714 H 0.0 **** 0.06
4819 H 247.9814676338575 225.43549916649442 238.80584423684758 H 0.0 **** 0.06
4820 H 248.61606239154617 226.23694665156452 237.3481878000377 H 0.0 **** 0.06
4821 C 88.1370070630619 163.0588797964478 23.220483702451844 C 0.0 **** -0.24
4822 H 87.21245908198173 163.54497710731079 23.533127287299095 H 0.0 **** 0.06
4823 H 88.0417862642411 162.72665832472632 22.186059478265605 H 0.0 **** 0.06
4824 H 88.3292658957985 162.19877601611262 23.86187796310159 H 0.0 **** 0.06
4825 H 88.96441078164753 163.7646489438392 23.30175225656214 H 0.0 **** 0.06
4826 C 94.2332258070906 64.34021094943276 222.22846962902568 C 0.0 **** -0.24
4827 H 94.29497378621176 63.49811683839093 221.53871585408058 H 0.0 **** 0.06
4828 H 95.22811701639492 64.76358759599506 222.37309426059792 H 0.0 **** 0.06
4829 H 93.84045249475145 63.99826438867842 223.18572729459095 H 0.0 **** 0.06
4830 H 93.57128796141058 65.10095536934321 221.81483236766638 H 0.0 **** 0.06
4831 C 67.30843301152615 147.97102897802583 100.75801461169661 C 0.0 **** -0.24
4832 H 66.24476159952897 147.7330623726675 100.73723975827443 H 0.0 **** 0.06
4833 H 67.44176743967284 149.04679673611938 100.64321377874572 H 0.0 **** 0.06
4834 H 67.81238681228763 147.45245502465642 99.94235954280555 H 0.0 **** 0.06
4835 H 67.73319234360605 147.65144910386968 101.70973399525005 H 0.0 **** 0.06
4836 C 102.53804956839707 133.89339956036616 23.96763917585291 C 0.0 **** -0.24
4837 H 101.94603673153748 134.58714066078065 24.56395171828504 H 0.0 **** 0.06
4838 H 103.59813807786483 134.06899230228638 24.154390678410138 H 0.0 **** 0.06
4839 H 102.32424194516324 134.04932498303376 22.91015246963201 H 0.0 **** 0.06
4840 H 102.28486057391939 132.8697473750501 24.242564802652566 H 0.0 **** 0.06
4841 C 181.32108074313896 126.59867581059044 133.22857965301944 C 0.0 **** -0.24
4842 H 181.56120064379854 125.54337761887646 133.36043462911033 H 0.0 **** 0.06
4843 H 182.1775691289329 127.11351831293635 132.7917027534171 H 0.0 **** 0.06
4844 H 181.08474531962645 127.04034267929941 134.19596246276743 H 0.0 **** 0.06
4845 H 180.46130228315235 126.69439526531644 132.5643926547725 H 0.0 **** 0.06
4846 C 122.07952190282853 110.15695265030143 149.89907146585958 C 0.0 **** -0.24
4847 H 121.47983207859997 110.33795167548507 149.00676824305114 H 0.0 **** 0.06
4848 H 121.44612224222519 109.7491470669336 150.6865008530123 H 0.0 **** 0.06
4849 H 122.52005681678298 111.0956993083266 150.23614160510337 H 0.0 **** 0.06
4850 H 122.87268120367591 109.44637534937004 149.66520869010446 H 0.0 **** 0.06
4851 C 220.71502825735143 143.56679354230468 74.72493345073559 C 0.0 **** -0.24
4852 H 220.5452800838426 142.74499607765108 75.42013849072544 H 0.0 **** 0.06
4853 H 220.74170438126416 143.18008700856393 73.70541541484945 H 0.0 **** 0.06
4854 H 221.66526371981558 144.0484674374079 74.95674889344653 H 0.0 **** 0.06
4855 H 219.9078648444833 144.29362364559577 74.81743100392075 H 0.0 **** 0.06
4856 C 200.15171061699868 113.92740917315618 3.4578306223256448 C 0.0 **** -0.24
4857 H 200.43210945198803 112.87377130698238 3.4906989419486933 H 0.0 **** 0.06
4858 H 199.2028605176473 114.03402181699846 2.9327574891372308 H 0.0 **** 0.06
4859 H 200.9235364622182 114.49168137335147 2.934458558541877 H 0.0 **** 0.06
4860 H 200.05022037772093 114.30706189896321 4.4743226804255585 H 0.0 **** 0.06
4861 C 6.421480942528802 29.022639781087406 228.99494351264417 C 0.0 **** -0.24
4862 H 5.440189495952367 29.26600306772633 228.58692515294035 H 0.0 **** 0.06
4863 H 6.3006110884968365 28.40847619221205 229.88784336314475 H 0.0 **** 0.06
4864 H 6.9457725347728 29.94141279460402 229.2533231218004 H 0.0 **** 0.06
4865 H 6.996543580721635 28.471874829871055 228.25015796903347 H 0.0 **** 0.06
4866 C 0.397590151226197 213.962873734788 25.598328087329577 C 0.0 **** -0.24
4867 H 0.38304625069069687 213.61399344901108 24.565353935377715 H 0.0 **** 0.06
4868 H 1.4303098020022986 214.10752617344218 25.917757856225563 H 0.0 **** 0.06
4869 H -0.08155180616128632 213.22342082993634 26.238600636982966 H 0.0 **** 0.06
4870 H -0.13996562705206372 214.9088003545483 25.668997674177632 H 0.0 **** 0.06
4871 C 189.60720869650132 108.03122170738985 122.54592187362044 C 0.0 **** -0.24
4872 H 188.71917570893504 108.55129887579966 122.18711451827619 H 0.0 **** 0.06
4873 H 190.20098860775096 107.69725965827564 121.69456158340438 H 0.0 **** 0.06
4874 H 189.3080665233828 107.16804674521393 123.14043975650767 H 0.0 **** 0.06
4875 H 190.20106561194666 108.70775494567593 123.16034299005835 H 0.0 **** 0.06
4876 C 115.64536178862858 226.95514741275994 153.65207039319841 C 0.0 **** -0.24
4877 H 116.19772462195715 227.82990502883177 153.99400894617935 H 0.0 **** 0.06
4878 H 116.34448206664527 226.14970610793733 153.42472545483517 H 0.0 **** 0.06
4879 H 115.08025160442514 227.2095850427787 152.75515704985457 H 0.0 **** 0.06
4880 H 114.9589888614868 226.63139347149195 154.43439012192454 H 0.0 **** 0.06
4881 C 214.00823213664293 44.2778652363249 229.1586233432622 C 0.0 **** -0.24
4882 H 213.27983628837055 44.53418065826163 229.9276041341505 H 0.0 **** 0.06
4883 H 213.5464444895414 43.61285225085179 228.42783918829983 H 0.0 **** 0.06
4884 H 214.86057257344868 43.77653742487283 229.6186731096114 H 0.0 **** 0.06
4885 H 214.34561028991237 45.186876437257084 228.66124604024608 H 0.0 **** 0.06
4886 C 166.4655972710218 222.54567885096554 188.53542529221073 C 0.0 **** -0.24
4887 H 167.22288647172368 223.11528249985213 189.0753302205822 H 0.0 **** 0.06
4888 H 166.44004839684928 222.87097200295588 187.4954901078341 H 0.0 **** 0.06
4889 H 165.49149507338535 222.7129301853515 188.99385463036143 H 0.0 **** 0.06
4890 H 166.71068402489217 221.48420573619984 188.57848204612412 H 0.0 **** 0.06
4891 C 95.41175828782312 226.8945013190276 12.523773537345761 C 0.0 **** -0.24
4892 H 94.54677579284382 226.79636194039887 13.180299638958076 H 0.0 **** 0.06
4893 H 95.8291877485666 225.90723415219412 12.323939197964052 H 0.0 **** 0.06
4894 H 96.1647256327139 227.51796449438245 13.006302727585677 H 0.0 **** 0.06
4895 H 95.10458495804787 227.35650559731067 11.585931784141195 H 0.0 **** 0.06
4896 C 150.18920725563635 222.04634449930523 98.73690394412196 C 0.0 **** -0.24
4897 H 150.10560800148446 221.3847953492882 97.87524946234998 H 0.0 **** 0.06
4898 H 150.6168786679745 222.9992336005448 98.42410672691386 H 0.0 **** 0.06
4899 H 150.834847754457 221.5869587736955 99.48632617774598 H 0.0 **** 0.06
4900 H 149.2009004047524 222.21487715882938 99.16360275087374 H 0.0 **** 0.06
4901 C 55.076492022864244 123.92067182777697 122.28332894768019 C 0.0 **** -0.24
4902 H 55.30508095216106 123.2122922322296 123.08051589769613 H 0.0 **** 0.06
4903 H 54.71333263307116 124.85196365282107 122.7183454605154 H 0.0 **** 0.06
4904 H 54.309724070769505 123.50020967161689 121.63304358957552 H 0.0 **** 0.06
4905 H 55.97814176042772 124.11669145751634 121.70301125437246 H 0.0 **** 0.06
4906 C 220.5672485458334 63.623850613692014 66.39178674663125 C 0.0 **** -0.24
4907 H 220.6458532528865 63.93075130800963 65.34877675903999 H 0.0 **** 0.06
4908 H 219.90263333201142 64.3073893132343 66.92154050754394 H 0.0 **** 0.06
4909 H 221.55490166481835 63.646864924540694 66.85266550507214 H 0.0 **** 0.06
4910 H 220.16455703306386 62.612588152481806 66.44447777185627 H 0.0 **** 0.06
4911 C 87.45025761241106 26.440921121172863 39.169729004603084 C 0.0 **** -0.24
4912 H 86.91766072285245 26.966849974709447 39.96243574015003 H 0.0 **** 0.06
4913 H 88.52011181181933 26.625185105957257 39.26723974481847 H 0.0 **** 0.06
4914 H 87.10563300901677 26.800135098909436 38.200143645812204 H 0.0 **** 0.06
4915 H 87.25697596103242 25.371136637371137 39.2502953270488 H 0.0 **** 0.06
4916 C 170.36204466925182 157.87707545696483 96.04969801027755 C 0.0 **** -0.24
4917 H 170.4844871204349 156.90691540948427 95.5675425342493 H 0.0 **** 0.06
4918 H 171.22421006011297 158.50492258923273 95.8263163196288 H 0.0 **** 0.06
4919 H 170.2818463447855 157.73849304082898 97.12858712724073 H 0.0 **** 0.06
4920 H 169.45638598944782 158.35629624057762 95.67762494311336 H 0.0 **** 0.06
4921 C 216.34835954375149 154.61900148227244 216.33592790298735 C 0.0 **** -0.24
4922 H 215.78953903603536 154.85821573770997 217.24078189716658 H 0.0 **** 0.06
4923 H 217.3779668682949 154.37422760385383 216.598665574132 H 0.0 **** 0.06
4924 H 216.3381368713162 155.47790406512559 215.66509676435362 H 0.0 **** 0.06
4925 H 215.88706661517696 153.76539647746011 215.83980000241309 H 0.0 **** 0.06
4926 C 7.952487938435368 125.11415606911643 22.260885430007278 C 0.0 **** -0.24
4927 H 7.04257374589838 125.48116296238535 22.736028223753237 H 0.0 **** 0.06
4928 H 8.381022257008354 125.90264369829455 21.640693375966137 H 0.0 **** 0.06
4929 H 7.715152125110762 124.25160408471044 21.639271127095014 H 0.0 **** 0.06
4930 H 8.67021601840571 124.82345260430597 23.027442968321267 H 0.0 **** 0.06
4931 C 20.046053963541425 1.4212348464113802 124.96225158378965 C 0.0 **** -0.24
4932 H 19.637022241624976 1.853870787763114 124.04996613035036 H 0.0 **** 0.06
4933 H 19.31782268663474 1.5176661214007794 125.7684654513084 H 0.0 **** 0.06
4934 H 20.961611210931125 1.9459591302355506 125.23457477091549 H 0.0 **** 0.06
4935 H 20.26771052536961 0.36664782175046184 124.79660391213079 H 0.0 **** 0.06
4936 C 236.78057162018828 114.55332187655895 228.48614013488458 C 0.0 **** -0.24
4937 H 236.68937617645818 115.59596954284615 228.79218394503638 H 0.0 **** 0.06
4938 H 237.69495146037457 114.42318808608925 227.90821344144035 H 0.0 **** 0.06
4939 H 235.92111164010853 114.27882088525865 227.87440136803042 H 0.0 **** 0.06
4940 H 236.81461444955755 113.91745702321762 229.3703949263132 H 0.0 **** 0.06
4941 C 109.47027237503028 77.42933527012977 233.26778469440086 C 0.0 **** -0.24
4942 H 109.0532055598919 76.46535490682561 232.97629935934702 H 0.0 **** 0.06
4943 H 108.99305752988428 77.76708525892107 234.1886953974875 H 0.0 **** 0.06
4944 H 109.28959452153788 78.15762773694155 232.47661266891663 H 0.0 **** 0.06
4945 H 110.54307351160242 77.32686241466789 233.4299469600262 H 0.0 **** 0.06
4946 C 27.35528211603274 238.9639527171272 156.34432109452956 C 0.0 **** -0.24
4947 H 27.99938286664252 239.72881908130165 156.7798268363767 H 0.0 **** 0.06
4948 H 26.466807900030076 238.8416748378554 156.96415515375838 H 0.0 **** 0.06
4949 H 27.89689809287269 238.01915510154134 156.29525816411032 H 0.0 **** 0.06
4950 H 27.059366732125184 239.26695961366624 155.3406137354551 H 0.0 **** 0.06
4951 C 221.92987665486623 239.26679832957308 159.45384066933528 C 0.0 **** -0.24
4952 H 222.72843900467467 239.83881136930682 158.98120039733396 H 0.0 **** 0.06
4953 H 222.06705645572845 239.27730650273708 160.5347309696475 H 0.0 **** 0.06
4954 H 221.95878614220516 238.2378970279065 159.09445935770853 H 0.0 **** 0.06
4955 H 220.96712143549877 239.71221984620473 159.2037534313273 H 0.0 **** 0.06
4956 C 13.68894245692266 3.757593367733975 172.98057470856673 C 0.0 **** -0.24
4957 H 13.036401793251656 4.601677772382445 172.75725930454314 H 0.0 **** 0.06
4958 H 14.683835995742314 4.124910484100184 173.23419363686716 H 0.0 **** 0.06
4959 H 13.753205193020875 3.107608140188489 172.10882299003103 H 0.0 **** 0.06
4960 H 13.282123681268118 3.197914043426806 173.8229933157808 H 0.0 **** 0.06
4961 C 104.88705853129238 142.3183036624361 140.16790019551178 C 0.0 **** -0.24
4962 H 104.4221732750392 141.82456658999004 141.02156170689977 H 0.0 **** 0.06
4963 H 104.78046598779014 141.69035809187173 139.2832449174616 H 0.0 **** 0.06
4964 H 105.94455497172413 142.4803508349322 140.3736343675724 H 0.0 **** 0.06
4965 H 104.39959508581563 143.27708370175253 139.99358500272683 H 0.0 **** 0.06
4966 C 239.45769242723492 216.11545549068774 240.09275450398366 C 0.0 **** -0.24
4967 H 239.96002380771358 216.81187902403536 240.7639251325245 H 0.0 **** 0.06
4968 H 239.8816671478279 215.1191914239053 240.22039430703322 H 0.0 **** 0.06
4969 H 239.59547345211973 216.4405048425035 239.0618413793712 H 0.0 **** 0.06
4970 H 238.3928307423134 216.09098754171464 240.32681964945544 H 0.0 **** 0.06
4971 C 20.037796858660997 227.76546844628513 116.83581055324856 C 0.0 **** -0.24
4972 H 19.579467023554187 226.9930709113807 117.4519017487456 H 0.0 **** 0.06
4973 H 19.590462178568956 228.73196391827395 117.07097383588996 H 0.0 **** 0.06
4974 H 19.873053473759327 227.53582769506983 115.78250607520104 H 0.0 **** 0.06
4975 H 21.108787774137326 227.80245912368832 117.03625935557338 H 0.0 **** 0.06
4976 C 183.64058395922464 74.60603977032036 106.14747412018116 C 0.0 **** -0.24
4977 H 183.25376148042517 73.72049385046347 106.65294654740438 H 0.0 **** 0.06
4978 H 183.12417403014877 74.73610750538217 105.1969754467475 H 0.0 **** 0.06
4979 H 184.70936938722764 74.48300182637723 105.96814214623583 H 0.0 **** 0.06
4980 H 183.47636156237257 75.48232217031992 106.77433034438187 H 0.0 **** 0.06
4981 C 234.6268963161346 101.10270036453775 102.39903649231769 C 0.0 **** -0.24
4982 H 233.87191959370472 100.59600848397395 101.7983984566645 H 0.0 **** 0.06
4983 H 235.25126453204223 101.71966596968468 101.7516947309444 H 0.0 **** 0.06
4984 H 235.2464844653057 100.36150473095802 102.90361663944572 H 0.0 **** 0.06
4985 H 234.13749234577074 101.73368309969229 103.14108845321502 H 0.0 **** 0.06
4986 C 182.53305271849834 175.69578912283208 214.88211095036905 C 0.0 **** -0.24
4987 H 182.16116216452303 174.81333313556252 215.40312670752854 H 0.0 **** 0.06
4988 H 181.7619341120295 176.07128241042818 214.20850315120867 H 0.0 **** 0.06
4989 H 183.42127750397515 175.43123348967345 214.30782476503492 H 0.0 **** 0.06
4990 H 182.78659387451415 176.4661858204376 215.60943231455605 H 0.0 **** 0.06
4991 C 241.12788335529203 95.63190283869918 186.1762459277154 C 0.0 **** -0.24
4992 H 240.98900132904808 95.26718231139472 187.19384520347546 H 0.0 **** 0.06
4993 H 241.44792479419326 94.80986111749405 185.53540393284504 H 0.0 **** 0.06
4994 H 241.8877165134455 96.41398807301655 186.17136370549406 H 0.0 **** 0.06
4995 H 240.18654787307648 96.03827416324899 185.80447928211282 H 0.0 **** 0.06
4996 C 42.88846769063096 135.77420500946343 246.14626402198985 C 0.0 **** -0.24
4997 H 42.99735327361428 135.28234550521074 245.1798920839633 H 0.0 **** 0.06
4998 H 43.415864824122565 136.72833051802877 246.13047311091654 H 0.0 **** 0.06
4999 H 43.309061577366435 135.1402247565687 246.92634118683384 H 0.0 **** 0.06
5000 H 41.831591087420605 135.94591925804554 246.34834970624573 H 0.0 **** 0.06
5001 C 90.90180360444973 67.43467470152612 35.423163048413386 C 0.0 **** -0.24
5002 H 91.41592361783611 67.6636863090929 36.356932757830194 H 0.0 **** 0.06
5003 H 91.4876735959732 67.81274559830044 34.58454732456097 H 0.0 **** 0.06
5004 H 89.9194384224771 67.9075775778469 35.42346878975414 H 0.0 **** 0.06
5005 H 90.78551176864295 66.35511970294746 35.327508549724385 H 0.0 **** 0.06
5006 C 27.310806297730238 179.88401229628042 238.45983753541185 C 0.0 **** -0.24
5007 H 27.8293326409311 178.98803729320653 238.11947186681715 H 0.0 **** 0.06
5008 H 27.002909414760722 179.75224963393362 239.4974958062574 H 0.0 **** 0.06
5009 H 26.431151644587715 180.05290080273022 237.83759164646668 H 0.0 **** 0.06
5010 H 27.979333888168128 180.74200664195598 238.3846435273465 H 0.0 **** 0.06
5011 C 92.85901076822006 88.50262472854067 241.50019458737114 C 0.0 **** -0.24
5012 H 93.12337540627811 88.72695550114815 242.53448885396904 H 0.0 **** 0.06
5013 H 92.2709685475661 87.58573240499067 241.4668122881821 H 0.0 **** 0.06
5014 H 93.76763389018652 88.37469623998709 240.91304990379993 H 0.0 **** 0.06
5015 H 92.27368983317152 89.32490939685363 241.0901203444259 H 0.0 **** 0.06
5016 C 219.29314379287393 14.646921620611977 172.52568295077307 C 0.0 **** -0.24
5017 H 218.97352589747177 15.609168984272728 172.12493242150347 H 0.0 **** 0.06
5018 H 218.41697746057332 14.038082305216378 172.75028219830747 H 0.0 **** 0.06
5019 H 219.86810011653418 14.807121295327022 173.43768232466547 H 0.0 **** 0.06
5020 H 219.9127338512827 14.135426664837865 171.78977152343964 H 0.0 **** 0.06
5021 C 135.2241663788362 164.42855366931917 181.02537801500074 C 0.0 **** -0.24
5022 H 134.63820323100094 163.62682831971296 181.47703633917308 H 0.0 **** 0.06
5023 H 136.100238963049 164.6292432231649 181.642132504109 H 0.0 **** 0.06
5024 H 134.61418593387646 165.3288213677758 180.95436750839878 H 0.0 **** 0.06
5025 H 135.5435013325076 164.1256188421592 180.0280093516322 H 0.0 **** 0.06
5026 C 214.94070636837804 237.75046011675013 137.4361928353842 C 0.0 **** -0.24
5027 H 215.50364957596187 238.65641243264304 137.6630031638657 H 0.0 **** 0.06
5028 H 215.24079177585512 237.37275934344854 136.45872854266614 H 0.0 **** 0.06
5029 H 213.87484759986862 237.97835779992243 137.42674294409738 H 0.0 **** 0.06
5030 H 215.1453126139754 236.9972843743599 138.19636001671515 H 0.0 **** 0.06
5031 C 207.44257905061485 61.85045378531626 193.0429703313478 C 0.0 **** -0.24
5032 H 207.91149116481253 61.645216431033305 194.00481003587907 H 0.0 **** 0.06
5033 H 207.71346544772067 62.85296222030826 192.71279619544873 H 0.0 **** 0.06
5034 H 206.3587746740407 61.782230622685205 193.14539717726012 H 0.0 **** 0.06
5035 H 207.7842621148429 61.120711347860976 192.30852820752887 H 0.0 **** 0.06
5036 C 201.11158373795325 179.1513179766603 28.324877487882702 C 0.0 **** -0.24
5037 H 200.54519998540712 179.9006495029059 27.772207356541344 H 0.0 **** 0.06
5038 H 201.63912913472623 178.50343977151613 27.62407276104061 H 0.0 **** 0.06
5039 H 200.42929045499176 178.55382606955575 28.929766625686185 H 0.0 **** 0.06
5040 H 201.8328345360839 179.64851493634973 28.97426569870875 H 0.0 **** 0.06
5041 C 109.6777110222998 114.43228818529684 162.0146585574423 C 0.0 **** -0.24
5042 H 109.33259276037506 114.72779921374465 161.02441859876942 H 0.0 **** 0.06
5043 H 109.74868324193423 115.31306610437807 162.65195421814818 H 0.0 **** 0.06
5044 H 110.65725586965178 113.96248799832878 161.93279749279893 H 0.0 **** 0.06
5045 H 108.97107874244682 113.72470930590706 162.44892520854305 H 0.0 **** 0.06
5046 C 102.88214969539573 227.81657553690746 144.13706668534633 C 0.0 **** -0.24
5047 H 101.80517171126081 227.66802672462845 144.06189198072494 H 0.0 **** 0.06
5048 H 103.39835088687394 226.95477699423571 143.71213235317006 H 0.0 **** 0.06
5049 H 103.16136593669415 227.92694185698414 145.18546887277245 H 0.0 **** 0.06
5050 H 103.16434695383109 228.71494859419332 143.5888686209233 H 0.0 **** 0.06
5051 C 93.43904739342108 37.11352215434073 147.61622324511004 C 0.0 **** -0.24
5052 H 93.53615209323081 36.67186464480416 146.62417188757192 H 0.0 **** 0.06
5053 H 92.45183899632269 36.88888225702165 148.01965113620676 H 0.0 **** 0.06
5054 H 93.56651393495608 38.1944605459294 147.54546973771932 H 0.0 **** 0.06
5055 H 94.20393904135778 36.700786115785974 148.27352933226192 H 0.0 **** 0.06
5056 C 215.2423175409123 225.67508338374057 141.28219275646987 C 0.0 **** -0.24
5057 H 214.9869173972406 226.27345796729156 140.40793868095878 H 0.0 **** 0.06
5058 H 215.0154824803968 226.2390773738693 142.18723541223846 H 0.0 **** 0.06
5059 H 216.30604061584472 225.43509879152813 141.26041665180279 H 0.0 **** 0.06
5060 H 214.66195803236968 224.75244737621918 141.2739947138619 H 0.0 **** 0.06
5061 C 202.48299228411383 110.13140201507079 144.719897774924 C 0.0 **** -0.24
5062 H 203.4604594694821 110.54414518559855 144.47314581046044 H 0.0 **** 0.06
5063 H 202.01405929331122 110.74287021500137 145.4921290093555 H 0.0 **** 0.06
5064 H 202.60018440968562 109.11050327943519 145.08566322217436 H 0.0 **** 0.06
5065 H 201.85491248910748 110.12777249357558 143.82805239365302 H 0.0 **** 0.06
5066 C 138.37336113590442 209.67545400554081 137.98272289926393 C 0.0 **** -0.24
5067 H 139.30211137359495 209.14440477112277 138.18998666906614 H 0.0 **** 0.06
5068 H 137.9660134124678 210.0724075584095 138.9135624645382 H 0.0 **** 0.06
5069 H 137.6549624728702 208.98981966281764 137.5343062738344 H 0.0 **** 0.06
5070 H 138.57130349819735 210.4971494866653 137.29415051352694 H 0.0 **** 0.06
5071 C 146.83359036402672 63.85105989383527 66.47318464814276 C 0.0 **** -0.24
5072 H 146.78689639102333 63.7441943930429 67.55670022341124 H 0.0 **** 0.06
5073 H 147.87644459188334 63.86398940412863 66.15390346900449 H 0.0 **** 0.06
5074 H 146.35080449979762 64.7827467896083 66.17821531607231 H 0.0 **** 0.06
5075 H 146.3203833922922 63.011653177281914 66.00242616230383 H 0.0 **** 0.06
5076 C 195.2340104847832 11.641768756389311 144.9517411889039 C 0.0 **** -0.24
5077 H 195.45789434717088 10.98674060788862 145.79409664604677 H 0.0 **** 0.06
5078 H 195.61622744435863 12.641656193950908 145.1586732616964 H 0.0 **** 0.06
5079 H 194.15509106411037 11.688629083675494 144.80564684388776 H 0.0 **** 0.06
5080 H 195.70707587490767 11.250571517034729 144.05165707356417 H 0.0 **** 0.06
5081 C 103.21891329343103 144.73144537479084 87.82204660067413 C 0.0 **** -0.24
5082 H 102.90271408744485 144.3922938801991 86.8353263262465 H 0.0 **** 0.06
5083 H 102.65443440213718 145.62280875999605 88.09734184968758 H 0.0 **** 0.06
5084 H 104.28325168255336 144.96612836451936 87.801940414688 H 0.0 **** 0.06
5085 H 103.03413019274117 143.94337294702208 88.55241474659937 H 0.0 **** 0.06
5086 C 56.59090506399744 177.6706000701773 117.23110173420594 C 0.0 **** -0.24
5087 H 55.79595543804035 177.88960828750209 117.94387874043292 H 0.0 **** 0.06
5088 H 56.154242249400795 177.3102927929604 116.2994210885467 H 0.0 **** 0.06
5089 H 57.24757833913165 176.90528975655093 117.64460493940194 H 0.0 **** 0.06
5090 H 57.165484890316804 178.57647573025355 117.03707883969489 H 0.0 **** 0.06
5091 C 114.1465477946958 6.732124479391388 56.8602303691988 C 0.0 **** -0.24
5092 H 114.98236708406944 6.509461879714934 57.524399822627146 H 0.0 **** 0.06
5093 H 113.29180913349464 6.111349554055266 57.13198006760433 H 0.0 **** 0.06
5094 H 114.43500081464569 6.521340565164735 55.82989519229079 H 0.0 **** 0.06
5095 H 113.87735423919227 7.783582424213677 56.955143901578 H 0.0 **** 0.06
5096 C 49.1111968693983 93.75754832229492 189.09336070550899 C 0.0 **** -0.24
5097 H 48.940081672442346 93.88253340943072 188.0235145017215 H 0.0 **** 0.06
5098 H 49.30039252743339 92.70676331513673 189.31073695063208 H 0.0 **** 0.06
5099 H 48.23011771097978 94.09024312875496 189.64271328623684 H 0.0 **** 0.06
5100 H 49.97275464901665 94.3527177289723 189.39518869290865 H 0.0 **** 0.06
5101 C 243.06884957368595 126.10955965866881 138.99225335433067 C 0.0 **** -0.24
5102 H 243.98229035759155 125.57205176511576 138.73552630397842 H 0.0 **** 0.06
5103 H 242.62392585594756 125.66505620262646 139.8820719450391 H 0.0 **** 0.06
5104 H 242.36580165629988 126.04657047787674 138.16242412736753 H 0.0 **** 0.06
5105 H 243.30692639170303 127.15483943555034 139.1878298875517 H 0.0 **** 0.06
5106 C 131.6976670461802 244.81972565402987 33.488102861985496 C 0.0 **** -0.24
5107 H 132.10396209822758 245.6186093274563 32.86771687187888 H 0.0 **** 0.06
5108 H 130.86493629280858 244.34501695733627 32.969370067102915 H 0.0 **** 0.06
5109 H 131.348384451693 245.23561169955198 34.43335734566523 H 0.0 **** 0.06
5110 H 132.4745597258266 244.07948015424347 33.68120112796703 H 0.0 **** 0.06
5111 C 83.07970286082761 62.70448020615319 195.17977151599013 C 0.0 **** -0.24
5112 H 83.93516925660938 62.96009395488076 194.55443126679415 H 0.0 **** 0.06
5113 H 83.40276073075162 62.0420738091108 195.9838119140798 H 0.0 **** 0.06
5114 H 82.32589195283529 62.20029234066166 194.57475144684713 H 0.0 **** 0.06
5115 H 82.6565103238602 63.61366642546042 195.60540757226582 H 0.0 **** 0.06
5116 C 55.89378066411959 68.3206403730058 243.65979750986668 C 0.0 **** -0.24
5117 H 56.658282760888454 67.57119207987586 243.4512084784218 H 0.0 **** 0.06
5118 H 56.3355395338252 69.31515393894978 243.59610733149646 H 0.0 **** 0.06
5119 H 55.49517324606015 68.16283506299618 244.66163141486922 H 0.0 **** 0.06
5120 H 55.09008589929485 68.23188051043411 242.92996262109133 H 0.0 **** 0.06
5121 C 5.6300208200896975 136.79774515047882 181.44030920300355 C 0.0 **** -0.24
5122 H 5.986680227563397 137.80283211670513 181.212520182123 H 0.0 **** 0.06
5123 H 6.40088140649263 136.25558210184423 181.989113144545 H 0.0 **** 0.06
5124 H 5.4065042980159035 136.2728317125456 180.51195861806582 H 0.0 **** 0.06
5125 H 4.727859225219959 136.86228711573247 182.0479491889995 H 0.0 **** 0.06
5126 C 30.62570007211191 182.04580559581564 217.9674854358246 C 0.0 **** -0.24
5127 H 30.83660491934755 182.52792234304198 217.01292629334543 H 0.0 **** 0.06
5128 H 29.915278850795048 181.23294371362044 217.8145742692573 H 0.0 **** 0.06
5129 H 30.201604854699312 182.77505705562686 218.65717603060995 H 0.0 **** 0.06
5130 H 31.55059892396362 181.6466627369768 218.38429674187898 H 0.0 **** 0.06
5131 C 240.51872640313172 75.17710879324218 55.65981072494648 C 0.0 **** -0.24
5132 H 240.34202136350268 74.1035756309467 55.59333179880224 H 0.0 **** 0.06
5133 H 240.67675209906577 75.45482347408839 56.70196042878564 H 0.0 **** 0.06
5134 H 239.65376954332658 75.71158669651871 55.26754096235132 H 0.0 **** 0.06
5135 H 241.4031209411341 75.4361545971525 55.07601096394757 H 0.0 **** 0.06
5136 C 113.20445319143889 143.32073734272538 207.63934318165803 C 0.0 **** -0.24
5137 H 112.81456652759974 142.44814839019878 207.11567012143843 H 0.0 **** 0.06
5138 H 114.19148633521962 143.56767545827296 207.24782087946204 H 0.0 **** 0.06
5139 H 113.280908885218 143.1003018885424 208.7042639816657 H 0.0 **** 0.06
5140 H 112.53160621200234 144.164812021 207.48899875790102 H 0.0 **** 0.06
5141 C 195.08902574712326 83.35664506809346 75.34897243747264 C 0.0 **** -0.24
5142 H 194.45316858588473 84.15024979253408 74.9581108646006 H 0.0 **** 0.06
5143 H 194.88921309392796 82.43174365467686 74.8089040734618 H 0.0 **** 0.06
5144 H 194.8793343677711 83.2122535864755 76.409245139767 H 0.0 **** 0.06
5145 H 196.13603939647325 83.63351192450389 75.2205678293204 H 0.0 **** 0.06
5146 C 178.2556603670763 1.3597299350331724 54.568836988797386 C 0.0 **** -0.24
5147 H 178.38815066975087 0.8552275238625526 53.6115965756149 H 0.0 **** 0.06
5148 H 178.8180105343489 2.2937514822753684 54.567220539147 H 0.0 **** 0.06
5149 H 178.6179157192866 0.7175811578557187 55.37148048006384 H 0.0 **** 0.06
5150 H 177.19731289061582 1.573425965369168 54.7239118462154 H 0.0 **** 0.06
5151 C 171.87458946807087 198.5440579790226 203.130009953147 C 0.0 **** -0.24
5152 H 171.17806289430152 198.21978528684153 202.35651235971716 H 0.0 **** 0.06
5153 H 172.84198540208368 198.76574538447886 202.67804824953163 H 0.0 **** 0.06
5154 H 171.99211748400583 197.7520715041012 203.86910477142948 H 0.0 **** 0.06
5155 H 171.486851460282 199.43986664762386 203.61618651175024 H 0.0 **** 0.06
5156 C 207.75588265443386 186.57714262040233 67.79566768643687 C 0.0 **** -0.24
5157 H 206.8667166815303 186.75081974717767 67.19013676985122 H 0.0 **** 0.06
5158 H 207.46780034847347 186.4662418843288 68.84116000259274 H 0.0 **** 0.06
5159 H 208.43591882618597 187.42434972881517 67.69433401610172 H 0.0 **** 0.06
5160 H 208.25421789738667 185.66920961929566 67.45630914790584 H 0.0 **** 0.06
5161 C 231.69104217563796 41.01440448792357 33.59875475839462 C 0.0 **** -0.24
5162 H 230.71472420260798 41.047774419014814 34.082142005883824 H 0.0 **** 0.06
5163 H 232.02472989438198 39.97914880487596 33.5253330318524 H 0.0 **** 0.06
5164 H 232.40777663828626 41.586277146357105 34.189464464635336 H 0.0 **** 0.06
5165 H 231.61743714872938 41.44538678489468 32.60087444626632 H 0.0 **** 0.06
5166 C 87.15090759776126 43.245554481443875 19.331917211789317 C 0.0 **** -0.24
5167 H 88.00415284348182 43.68527266787194 19.84859219519126 H 0.0 **** 0.06
5168 H 87.3668015479966 43.17890327712847 18.265059677101036 H 0.0 **** 0.06
5169 H 86.27067271128755 43.869731941316886 19.487193147963993 H 0.0 **** 0.06
5170 H 86.96227192531765 42.24766380955384 19.728052745338985 H 0.0 **** 0.06
5171 C 136.8026813859776 242.2684281708498 173.33018045175348 C 0.0 **** -0.24
5172 H 135.73132268578743 242.1836894780575 173.5140321997283 H 0.0 **** 0.06
5173 H 137.1468196196283 241.3893170528161 172.78554012513797 H 0.0 **** 0.06
5174 H 137.330684545731 242.33677800534954 174.28066796909243 H 0.0 **** 0.06
5175 H 136.99974159448595 243.1628257028391 172.7390215057251 H 0.0 **** 0.06
5176 C 46.37485830366427 24.845845231003835 224.63612159616153 C 0.0 **** -0.24
5177 H 45.79364035673548 24.777457692304438 223.71652852737418 H 0.0 **** 0.06
5178 H 47.33413320023574 25.31876217586688 224.42431316585134 H 0.0 **** 0.06
5179 H 46.54210133180844 23.845846538980894 225.03528690869982 H 0.0 **** 0.06
5180 H 45.82891616683497 25.44203294051617 225.3673226408494 H 0.0 **** 0.06
5181 C 71.9970908979823 140.16819778230806 248.66448020412727 C 0.0 **** -0.24
5182 H 72.6008353265945 139.88083222889384 247.8041405824764 H 0.0 **** 0.06
5183 H 72.16149086613032 139.46017629308196 249.47655765566248 H 0.0 **** 0.06
5184 H 70.94250678652017 140.16427060714656 248.38643432384742 H 0.0 **** 0.06
5185 H 72.28255193567 141.16851871456618 248.99095777378625 H 0.0 **** 0.06
5186 C 41.58721348721083 9.566318921881333 151.04767287655352 C 0.0 **** -0.24
5187 H 41.26245380461539 8.564535317450279 151.32981704676615 H 0.0 **** 0.06
5188 H 40.7517141383052 10.107063431286349 150.60387362469626 H 0.0 **** 0.06
5189 H 42.39979391119016 9.495346690758964 150.32472573823577 H 0.0 **** 0.06
5190 H 41.93523182370909 10.097899186010494 151.93391789868608 H 0.0 **** 0.06
5191 C 68.21869525643237 183.8110153656644 88.76203725160252 C 0.0 **** -0.24
5192 H 67.31692905331963 184.10422016318483 89.29983389844622 H 0.0 **** 0.06
5193 H 67.94081027126433 183.30037718818772 87.84039787047664 H 0.0 **** 0.06
5194 H 68.81102417528561 183.14068676595133 89.38458651554078 H 0.0 **** 0.06
5195 H 68.80359225421384 184.70004435749644 88.52491591436262 H 0.0 **** 0.06
5196 C 111.04364456605703 212.3491186656941 178.42844335453913 C 0.0 **** -0.24
5197 H 109.95635418120659 212.3154579991711 178.4988645831902 H 0.0 **** 0.06
5198 H 111.4143497256243 211.3907958799709 178.0652220879479 H 0.0 **** 0.06
5199 H 111.46519042635174 212.5534097350406 179.41303962872314 H 0.0 **** 0.06
5200 H 111.3387266094771 213.13917539030504 177.73728596510733 H 0.0 **** 0.06
5201 C 208.414246522668 155.9584731377437 222.78079780292228 C 0.0 **** -0.24
5202 H 207.5784445188986 156.4547106561528 223.27372061820296 H 0.0 **** 0.06
5203 H 208.48213984649067 154.92871529003915 223.13061323097577 H 0.0 **** 0.06
5204 H 209.33890648013937 156.48501378319364 223.01662290416738 H 0.0 **** 0.06
5205 H 208.25585711359736 155.96690544083165 221.70178006747383 H 0.0 **** 0.06
5206 C 203.86022217316773 118.73516478261644 148.6035603361945 C 0.0 **** -0.24
5207 H 203.68326250714418 119.16225978753181 147.6169009755984 H 0.0 **** 0.06
5208 H 204.93260971180675 118.60631795573283 148.75518172605334 H 0.0 **** 0.06
5209 H 203.3645293577981 117.76679342441753 148.6750104510612 H 0.0 **** 0.06
5210 H 203.46364644811987 119.40398078089692 149.36659140446847 H 0.0 **** 0.06
5211 C 128.12034927119012 38.352405275625756 196.68689116200403 C 0.0 **** -0.24
5212 H 128.80354043210338 38.9224898047878 197.31621781276124 H 0.0 **** 0.06
5213 H 127.09467182002365 38.531244483471625 197.01116864070593 H 0.0 **** 0.06
5214 H 128.34948807487157 37.29072815136631 196.7721827218491 H 0.0 **** 0.06
5215 H 128.23449647720324 38.66750613234339 195.6496836443613 H 0.0 **** 0.06
5216 C 137.7646843822535 128.76584609003552 39.321505055805034 C 0.0 **** -0.24
5217 H 136.94118771821704 128.8366359640184 40.03158927620177 H 0.0 **** 0.06
5218 H 137.96813389688705 129.7497079763855 38.90030244442633 H 0.0 **** 0.06
5219 H 137.49498075497252 128.07643157525948 38.521386845500956 H 0.0 **** 0.06
5220 H 138.654214179189 128.39688084122915 39.83297251645722 H 0.0 **** 0.06
5221 C 31.24017058309707 9.049828662414654 240.79812469367394 C 0.0 **** -0.24
5222 H 31.99101970468459 8.337403307582207 240.45734870695017 H 0.0 **** 0.06
5223 H 31.732101424557527 9.883087467418619 241.2995919179972 H 0.0 **** 0.06
5224 H 30.560660261130806 8.556602257666455 241.49446227163767 H 0.0 **** 0.06
5225 H 30.676129088892623 9.42124784003947 239.94230253896507 H 0.0 **** 0.06
5226 C 220.27045093467586 219.67152924110928 200.6975835763019 C 0.0 **** -0.24
5227 H 221.26560535150273 220.01450985116793 200.41495209473246 H 0.0 **** 0.06
5228 H 219.5904709712383 220.5240124279925 200.73580998606107 H 0.0 **** 0.06
5229 H 220.3140591287657 219.19750401860796 201.67838120446118 H 0.0 **** 0.06
5230 H 219.9109195633871 218.952614297725 199.96222580343226 H 0.0 **** 0.06
5231 C 221.36439762444195 104.50930957842326 236.86395329350373 C 0.0 **** -0.24
5232 H 220.42964425350922 104.78609295229023 236.37589113234037 H 0.0 **** 0.06
5233 H 221.93008803019865 103.84200508152679 236.2128990309963 H 0.0 **** 0.06
5234 H 221.14669249383206 104.00065908593157 237.80350463813267 H 0.0 **** 0.06
5235 H 221.95058535008985 105.40649402615401 237.06267316052322 H 0.0 **** 0.06
5236 C 213.0800966176058 203.37695731381172 199.01732516290173 C 0.0 **** -0.24
5237 H 212.59197723379972 203.45212363181207 199.9902481218706 H 0.0 **** 0.06
5238 H 213.27879523710774 202.32902625225415 198.79093407299908 H 0.0 **** 0.06
5239 H 214.01933548626408 203.92851543742742 199.03920074002102 H 0.0 **** 0.06
5240 H 212.42872752815072 203.79829198250252 198.2514825044993 H 0.0 **** 0.06
5241 C 30.820711348854005 78.10681260568256 172.1538593865594 C 0.0 **** -0.24
5242 H 30.793112504111335 77.01987415717414 172.08097813936425 H 0.0 **** 0.06
5243 H 31.55972820884783 78.40177337557029 172.8995743488525 H 0.0 **** 0.06
5244 H 29.83806162430389 78.47553432549367 172.44973840060555 H 0.0 **** 0.06
5245 H 31.090548804631695 78.52923668397787 171.18698080308937 H 0.0 **** 0.06
5246 C 205.2497845093816 107.32228534175104 126.59061512627102 C 0.0 **** -0.24
5247 H 204.50244649630608 107.61307202281725 127.32964596489174 H 0.0 **** 0.06
5248 H 205.7644068035893 106.42313122651396 126.92903400557378 H 0.0 **** 0.06
5249 H 205.9706077651348 108.1294404986379 126.46703544048998 H 0.0 **** 0.06
5250 H 204.7588067753448 107.12329803491667 125.63759493066001 H 0.0 **** 0.06
5251 C 221.744157078429 190.45839362588222 20.890202560840095 C 0.0 **** -0.24
5252 H 221.99907501119412 191.25909504913852 20.19574475068758 H 0.0 **** 0.06
5253 H 220.95450742677846 189.84262254199191 20.46017818425473 H 0.0 **** 0.06
5254 H 221.3990629763655 190.8902112002716 21.82939008610731 H 0.0 **** 0.06
5255 H 222.62526527872936 189.84422383641663 21.074189982577295 H 0.0 **** 0.06
5256 C 126.57786321032972 58.35936177837161 168.34976635717297 C 0.0 **** -0.24
5257 H 126.78009693665044 58.15093056704484 169.40041116873013 H 0.0 **** 0.06
5258 H 126.76975614147145 59.41256933571148 168.14534641979404 H 0.0 **** 0.06
5259 H 125.53541922052696 58.129835568977654 168.12827861585706 H 0.0 **** 0.06
5260 H 127.22638320602545 57.743437854967056 167.72573982171403 H 0.0 **** 0.06
5261 C 71.08248862000184 17.7142557169374 84.30469130218714 C 0.0 **** -0.24
5262 H 71.86185770831759 17.622754688480967 85.06119903838382 H 0.0 **** 0.06
5263 H 71.52978057304207 18.014830649598508 83.3568272850172 H 0.0 **** 0.06
5264 H 70.35744022654174 18.4650972539786 84.6184226846388 H 0.0 **** 0.06
5265 H 70.58087597210604 16.754340275691703 84.18231620070875 H 0.0 **** 0.06
5266 C 80.43038011728635 40.63943623483834 6.688044164040917 C 0.0 **** -0.24
5267 H 79.78334571005396 41.47972490958975 6.4364433146747615 H 0.0 **** 0.06
5268 H 81.39672696247209 41.01443622304376 7.024229152633367 H 0.0 **** 0.06
5269 H 80.56938174273998 40.01301664831715 5.806909316822512 H 0.0 **** 0.06
5270 H 79.9700844146569 40.05222828718533 7.48277447247942 H 0.0 **** 0.06
5271 C 177.98727656605303 214.77902790853432 137.9644998958319 C 0.0 **** -0.24
5272 H 177.96041473120317 214.49786416643292 139.01759341855995 H 0.0 **** 0.06
5273 H 177.0986843180701 215.36282175180344 137.72201866932315 H 0.0 **** 0.06
5274 H 178.0121378088175 213.8804190975943 137.3488525266615 H 0.0 **** 0.06
5275 H 178.87827109036013 215.3768370364192 137.77208218622155 H 0.0 **** 0.06
5276 C 47.8110313332553 179.01850992559662 34.29126522392082 C 0.0 **** -0.24
5277 H 47.993125142437535 178.07570996694656 34.80606483679682 H 0.0 **** 0.06
5278 H 47.15374604654707 179.64276321433096 34.897665640670624 H 0.0 **** 0.06
5279 H 47.338247145416105 178.82169839211798 33.329013748525625 H 0.0 **** 0.06
5280 H 48.757131286508596 179.53428733413978 34.132869851456434 H 0.0 **** 0.06
5281 C 77.45048154838716 67.54128137878243 146.74194816908866 C 0.0 **** -0.24
5282 H 77.21100765502925 67.28233905266947 145.7108741225449 H 0.0 **** 0.06
5283 H 78.07545583785142 66.76040204457382 147.17724139088432 H 0.0 **** 0.06
5284 H 76.52938945704474 67.63282130891935 147.31790856146057 H 0.0 **** 0.06
5285 H 77.98733430226739 68.48982997520486 146.7623504373374 H 0.0 **** 0.06
5286 C 65.95759668057252 159.56971680068995 199.1829457528064 C 0.0 **** -0.24
5287 H 65.35915504297304 158.8586524040418 199.7521729446808 H 0.0 **** 0.06
5288 H 65.36475154646283 159.96547117092808 198.35853463514206 H 0.0 **** 0.06
5289 H 66.83959472196034 159.06547680012625 198.7876192429832 H 0.0 **** 0.06
5290 H 66.26705465858376 160.38635454923087 199.8341562435508 H 0.0 **** 0.06
5291 C 125.32216476845252 32.087976650249374 91.55138732386035 C 0.0 **** -0.24
5292 H 124.82125053979703 33.0201991989052 91.80861602572281 H 0.0 **** 0.06
5293 H 125.68679813177721 32.142326447726276 90.52538625969885 H 0.0 **** 0.06
5294 H 124.61882324547321 31.260214126214265 91.6439479973082 H 0.0 **** 0.06
5295 H 126.16199308494777 31.927894842460347 92.22818182096321 H 0.0 **** 0.06
5296 C 169.06884608810375 129.4078682850134 107.19457196891855 C 0.0 **** -0.24
5297 H 168.44885547643523 130.0871209813394 106.6095215569176 H 0.0 **** 0.06
5298 H 169.6709610009969 129.98220584500075 107.8988883548329 H 0.0 **** 0.06
5299 H 169.72485071859901 128.8498376199951 106.52662491361659 H 0.0 **** 0.06
5300 H 168.43182090853148 128.71342669502855 107.74166187057048 H 0.0 **** 0.06
5301 C 191.19257461291375 54.07995457783764 87.1733874730815 C 0.0 **** -0.24
5302 H 191.24508050397296 55.08050515142756 87.60364234948253 H 0.0 **** 0.06
5303 H 191.88087115387563 54.01073060087779 86.33048386601621 H 0.0 **** 0.06
5304 H 190.17590226350276 53.885671039201554 86.82941679843509 H 0.0 **** 0.06
5305 H 191.4665141833146 53.34433507196604 87.92950956734057 H 0.0 **** 0.06
5306 C 125.55862840648871 32.69634003043838 175.33068775559246 C 0.0 **** -0.24
5307 H 124.9593600475308 32.10158524809833 174.64182148048837 H 0.0 **** 0.06
5308 H 126.45750131563554 32.142683898022526 175.6011834951819 H 0.0 **** 0.06
5309 H 124.97649246367982 32.90526680737645 176.22951139655572 H 0.0 **** 0.06
5310 H 125.83762824921934 33.6344166407511 174.8529818734559 H 0.0 **** 0.06
5311 C 171.20719015968655 11.356746604612454 0.7347261911015295 C 0.0 **** -0.24
5312 H 170.39254000130978 12.03438388700988 0.991382396994652 H 0.0 **** 0.06
5313 H 171.3594789208803 10.64818564812677 1.549354990426849 H 0.0 **** 0.06
5314 H 172.12043871065956 11.930136162357513 0.5750732234821214 H 0.0 **** 0.06
5315 H 170.95468623007372 10.814901187632785 -0.17687288813357327 H 0.0 **** 0.06
5316 C 179.4375195189449 22.113292304552147 88.00759380792462 C 0.0 **** -0.24
5317 H 179.66407507300983 22.54700775184223 87.0332606681952 H 0.0 **** 0.06
5318 H 179.82928286885078 21.09644710980072 88.05183077619492 H 0.0 **** 0.06
5319 H 178.3574496600295 22.093503827045296 88.15414785314519 H 0.0 **** 0.06
5320 H 179.9000946239674 22.714901362613034 88.78986829951256 H 0.0 **** 0.06
5321 C 70.75947514352424 90.62624535299679 11.345336261553797 C 0.0 **** -0.24
5322 H 71.46942530183057 89.80293321676012 11.433230986409484 H 0.0 **** 0.06
5323 H 70.29123976570617 90.8070040955449 12.313765140339996 H 0.0 **** 0.06
5324 H 69.99364990845888 90.36914576893224 10.61384389792434 H 0.0 **** 0.06
5325 H 71.28366623837323 91.52492377669876 11.022750862135098 H 0.0 **** 0.06
5326 C 228.4334440890949 56.37639898262594 74.82076937315256 C 0.0 **** -0.24
5327 H 227.96289444440782 55.484670371904286 75.23584971888391 H 0.0 **** 0.06
5328 H 228.58046540990438 57.11097320743707 75.61211695931584 H 0.0 **** 0.06
5329 H 227.7915737143582 56.79876745773265 74.04759936395442 H 0.0 **** 0.06
5330 H 229.39704776067788 56.1099738297647 74.38695355132151 H 0.0 **** 0.06
5331 C 110.9264344918924 198.6111348179015 99.4758596689203 C 0.0 **** -0.24
5332 H 110.8628648096875 197.53025268221378 99.60221739667617 H 0.0 **** 0.06
5333 H 109.92485027348857 199.01928023318777 99.33274096553589 H 0.0 **** 0.06
5334 H 111.54022496381302 198.8395309259449 98.60442806210733 H 0.0 **** 0.06
5335 H 111.37556800909644 199.05562748308867 100.36398574273113 H 0.0 **** 0.06
5336 C 59.67308791618879 95.42500694489942 2.51660305975507 C 0.0 **** -0.24
5337 H 59.09996759767242 95.06066632015538 3.369877687449687 H 0.0 **** 0.06
5338 H 59.05957555960947 95.36927687373574 1.6168423549053017 H 0.0 **** 0.06
5339 H 60.563730661318175 94.81027597222996 2.388186175206272 H 0.0 **** 0.06
5340 H 59.96752555071001 96.45978074036671 2.692273895897614 H 0.0 **** 0.06
5341 C 78.04324621454518 75.01645335733537 222.79377987148433 C 0.0 **** -0.24
5342 H 78.85086960844419 74.59142677170786 223.3904828399001 H 0.0 **** 0.06
5343 H 77.66630513935382 75.91583628624429 223.28168800944837 H 0.0 **** 0.06
5344 H 77.23816928861027 74.28824415713447 222.70089250406613 H 0.0 **** 0.06
5345 H 78.41969620579272 75.2709336209748 221.8026740370663 H 0.0 **** 0.06
5346 C 141.59000286574866 107.25333127631157 48.01340245446009 C 0.0 **** -0.24
5347 H 140.98843604709245 107.3429424542837 48.91806635378332 H 0.0 **** 0.06
5348 H 141.00227771279629 106.771301750627 47.232289627693234 H 0.0 **** 0.06
5349 H 142.47561255394916 106.65480145345157 48.22388781769543 H 0.0 **** 0.06
5350 H 141.89345693762832 108.24623660036042 47.68042314612313 H 0.0 **** 0.06
5351 C 79.33267324976825 96.2665041753369 135.31263319344626 C 0.0 **** -0.24
5352 H 80.14157337319065 95.73291514996876 134.81507526037598 H 0.0 **** 0.06
5353 H 78.42898004713342 95.65513323820127 135.29417329559624 H 0.0 **** 0.06
5354 H 79.14571081290794 97.2078750076981 134.79631297447727 H 0.0 **** 0.06
5355 H 79.61355727430478 96.46890808792509 136.3469297683611 H 0.0 **** 0.06
5356 C 168.55275685934092 141.44271004221832 192.6075252781853 C 0.0 **** -0.24
5357 H 168.23176463534313 141.98757405611192 191.71982275714768 H 0.0 **** 0.06
5358 H 167.90310658676333 140.58153896454195 192.7600193954795 H 0.0 **** 0.06
5359 H 168.49725883075087 142.09888868806527 193.47601714396 H 0.0 **** 0.06
5360 H 169.58068735047917 141.10378213244385 192.47286139489563 H 0.0 **** 0.06
5361 C 245.3383683057675 143.80492137552568 117.59512814662253 C 0.0 **** -0.24
5362 H 246.0037684461129 143.17397750210495 118.1858260957697 H 0.0 **** 0.06
5363 H 244.91039942840388 143.2190201245354 116.78143291044029 H 0.0 **** 0.06
5364 H 245.90211918155129 144.64180744984273 117.18445527744228 H 0.0 **** 0.06
5365 H 244.5379146119435 144.1828976258129 118.23188666959359 H 0.0 **** 0.06
5366 C 83.58490741010613 80.09203629262979 78.23880269428099 C 0.0 **** -0.24
5367 H 83.91471981777508 79.63464319665195 77.30566824169142 H 0.0 **** 0.06
5368 H 83.72309579180236 79.38538582524353 79.05733654240808 H 0.0 **** 0.06
5369 H 82.53075432588051 80.35649481230851 78.16026908326347 H 0.0 **** 0.06
5370 H 84.17196668473085 80.9907383374258 78.4292170222071 H 0.0 **** 0.06
5371 C 76.0920596334783 181.46540077480455 147.9013455171572 C 0.0 **** -0.24
5372 H 76.96026092719575 181.13458157643066 148.47184945784835 H 0.0 **** 0.06
5373 H 76.36481291825882 181.56244417998326 146.85012441779088 H 0.0 **** 0.06
5374 H 75.75355484711423 182.42920040277346 148.2803961031649 H 0.0 **** 0.06
5375 H 75.29050293350465 180.7333697075157 148.00342856636817 H 0.0 **** 0.06
5376 C 181.3626142952668 2.3887884433002284 77.6956569493237 C 0.0 **** -0.24
5377 H 181.29598784493191 1.3958302972309582 77.24963271523038 H 0.0 **** 0.06
5378 H 181.42067151620404 2.2963197910218014 78.77969268041912 H 0.0 **** 0.06
5379 H 180.47885824919558 2.967577972574219 77.42568193429949 H 0.0 **** 0.06
5380 H 182.25451624225445 2.893331655351801 77.32508357450283 H 0.0 **** 0.06
5381 C 117.72947836015697 223.70562736366753 31.45774972718985 C 0.0 **** -0.24
5382 H 117.10737923622727 224.5995110641474 31.399593112082613 H 0.0 **** 0.06
5383 H 118.7788854619034 223.98781967553987 31.377289825608585 H 0.0 **** 0.06
5384 H 117.47024014491726 223.02968690847865 30.642564090071374 H 0.0 **** 0.06
5385 H 117.55848152749303 223.20614850911647 32.411584896492826 H 0.0 **** 0.06
5386 C 139.45925444270455 66.97314826136412 81.30227016026595 C 0.0 **** -0.24
5387 H 139.696937869697 67.4575234588614 82.2486362692263 H 0.0 **** 0.06
5388 H 139.21150619313016 65.92631483483697 81.48172813322788 H 0.0 **** 0.06
5389 H 140.3190875869162 67.03380187798481 80.6362508984792 H 0.0 **** 0.06
5390 H 138.60748362652444 67.47395788075991 80.84247263164713 H 0.0 **** 0.06
5391 C 51.159434174623215 32.95571520893574 247.58701330689593 C 0.0 **** -0.24
5392 H 51.76887262514424 33.33312160495046 246.76558907967853 H 0.0 **** 0.06
5393 H 51.08202167739066 31.870545666260895 247.51207367333512 H 0.0 **** 0.06
5394 H 50.16381610714026 33.396380492291314 247.53165678311913 H 0.0 **** 0.06
5395 H 51.622710294443465 33.22351101631551 248.53566561078068 H 0.0 **** 0.06
5396 C 53.46531041134163 136.42921791265496 26.727098225437416 C 0.0 **** -0.24
5397 H 52.95453533052101 137.0817738071127 27.435347611432874 H 0.0 **** 0.06
5398 H 54.419371136411854 136.11277863678094 27.148500509588132 H 0.0 **** 0.06
5399 H 53.6407134214638 136.970750304624 25.79686866576182 H 0.0 **** 0.06
5400 H 52.84679172321245 135.55487213568773 26.5279207912197 H 0.0 **** 0.06
5401 C 176.62205177149937 92.40236544403217 214.58434318057846 C 0.0 **** -0.24
5402 H 175.8057079541854 93.07924963293468 214.33328316562717 H 0.0 **** 0.06
5403 H 176.59833252653326 91.54158680600008 213.91536551888473 H 0.0 **** 0.06
5404 H 176.5106353263021 92.0658645470971 215.61439904174497 H 0.0 **** 0.06
5405 H 177.57275856783642 92.92380144141839 214.4722465300973 H 0.0 **** 0.06
5406 C 144.75513991894965 142.0866336325303 168.48684390907533 C 0.0 **** -0.24
5407 H 144.3295943696269 142.93659423066455 169.01992320163978 H 0.0 **** 0.06
5408 H 145.12614114622318 141.35643587895055 169.20651807527776 H 0.0 **** 0.06
5409 H 145.57677429746195 142.42798690714298 167.85771081321863 H 0.0 **** 0.06
5410 H 143.98756329517585 141.6258937803514 167.86484271404345 H 0.0 **** 0.06
5411 C 164.43960129222856 84.79753947209028 140.45500914482452 C 0.0 **** -0.24
5412 H 163.57550018639537 85.14859065226412 141.01952833988545 H 0.0 **** 0.06
5413 H 165.27241815911006 85.48493552318436 140.60217673926232 H 0.0 **** 0.06
5414 H 164.18704226512236 84.75402686133239 139.39489774815672 H 0.0 **** 0.06
5415 H 164.72139574643538 83.80363599231876 140.80257399784188 H 0.0 **** 0.06
5416 C 49.635217099019485 151.44067327630952 75.44120150226547 C 0.0 **** -0.24
5417 H 50.259446150330916 151.1498543510516 76.28583752377651 H 0.0 **** 0.06
5418 H 49.024430963333344 152.29967087968964 75.7198840954496 H 0.0 **** 0.06
5419 H 48.9878503838157 150.60837995732567 75.16444395660622 H 0.0 **** 0.06
5420 H 50.26953543775417 151.70515351325204 74.59548345641855 H 0.0 **** 0.06
5421 C 96.02945675560605 248.3993294042525 127.281705571455 C 0.0 **** -0.24
5422 H 95.63305423226254 249.314067059285 127.72224005310889 H 0.0 **** 0.06
5423 H 97.06493612447113 248.56022330268036 126.98219230575009 H 0.0 **** 0.06
5424 H 95.43530752343719 248.12890723316397 126.40879371537403 H 0.0 **** 0.06
5425 H 95.98338264701067 247.59422729552273 128.01551300310203 H 0.0 **** 0.06
5426 C 14.694800173668284 96.70415982604521 78.00616039790697 C 0.0 **** -0.24
5427 H 14.149252882949838 96.56363319132512 78.93936562128027 H 0.0 **** 0.06
5428 H 15.045467935102153 95.73750229386712 77.64292505047416 H 0.0 **** 0.06
5429 H 15.548122891841416 97.35877174246201 78.17900174560958 H 0.0 **** 0.06
5430 H 14.036037765127134 97.15402972025021 77.26412082656253 H 0.0 **** 0.06
5431 C 8.307310217782174 173.2406894541461 104.30361731231707 C 0.0 **** -0.24
5432 H 7.593742685263862 173.23977759443338 103.47959903890964 H 0.0 **** 0.06
5433 H 8.760880735770627 174.2285615272215 104.38870625904323 H 0.0 **** 0.06
5434 H 9.084060933078916 172.49967463281422 104.11237940078777 H 0.0 **** 0.06
5435 H 7.791599398306005 172.99456167470322 105.23097755550046 H 0.0 **** 0.06
5436 C 57.13383602230991 74.77140422001179 239.8351741268022 C 0.0 **** -0.24
5437 H 57.831416085650375 74.25116343175947 240.492268606817 H 0.0 **** 0.06
5438 H 56.578896894260396 75.51354619024067 240.40926073284209 H 0.0 **** 0.06
5439 H 56.4387293441018 74.05187045184539 239.4034735091264 H 0.0 **** 0.06
5440 H 57.686506237935504 75.267602325404 239.03832054696142 H 0.0 **** 0.06
5441 C 232.16105936956745 199.0839783440222 93.99492315767057 C 0.0 **** -0.24
5442 H 232.35443047427705 198.06616345073084 94.33378747941933 H 0.0 **** 0.06
5443 H 233.058200963011 199.48472160188652 93.52172300546292 H 0.0 **** 0.06
5444 H 231.89093775533095 199.70625347440605 94.8480190159058 H 0.0 **** 0.06
5445 H 231.3427390655232 199.0777956435637 93.27529532477172 H 0.0 **** 0.06
5446 C 96.49272508170935 228.00437256743794 214.16960890582362 C 0.0 **** -0.24
5447 H 97.24528733936353 227.41384694448908 213.64669198121553 H 0.0 **** 0.06
5448 H 95.77260337298318 227.3361293930613 214.642844960091 H 0.0 **** 0.06
5449 H 95.97764850049447 228.64903666241446 213.4575703625126 H 0.0 **** 0.06
5450 H 96.97668069240135 228.61600674128528 214.9302534755827 H 0.0 **** 0.06
5451 C 164.907672748257 18.213575144495508 175.12850300275412 C 0.0 **** -0.24
5452 H 165.81099169088012 17.61118962427659 175.23034676995547 H 0.0 **** 0.06
5453 H 164.75912559235078 18.471794153705474 174.0799262262098 H 0.0 **** 0.06
5454 H 165.01160481612118 19.125235054347343 175.7170817192458 H 0.0 **** 0.06
5455 H 164.05003368223424 17.64399071457595 175.48736005643804 H 0.0 **** 0.06
5456 C 76.40512158276562 143.50739747643928 115.43096268931447 C 0.0 **** -0.24
5457 H 76.57601030285699 143.91050464335987 114.43360507541769 H 0.0 **** 0.06
5458 H 77.18823820879814 143.85867587841312 116.10408483242543 H 0.0 **** 0.06
5459 H 76.42312298499533 142.41843765922727 115.39067581883066 H 0.0 **** 0.06
5460 H 75.43400624911683 143.84137482603387 115.79744695321918 H 0.0 **** 0.06
5461 C 195.00779036235383 136.96416244832153 79.85236822477424 C 0.0 **** -0.24
5462 H 194.90267946240118 136.47770246999653 78.88194771285151 H 0.0 **** 0.06
5463 H 194.22915509348115 137.7194469007345 79.96520924696009 H 0.0 **** 0.06
5464 H 195.98625820837412 137.43725476502894 79.91749024459037 H 0.0 **** 0.06
5465 H 194.90892510314796 136.2205968509674 80.64337229204045 H 0.0 **** 0.06
5466 C 46.338031830535954 214.5298373735245 46.35174030447409 C 0.0 **** -0.24
5467 H 45.658427531645756 215.3060607647474 46.701694302493664 H 0.0 **** 0.06
5468 H 47.12382664829225 214.37362048818292 47.09144860330369 H 0.0 **** 0.06
5469 H 46.784488513488114 214.8375731014384 45.40600845860597 H 0.0 **** 0.06
5470 H 45.78461096555691 213.60098058770654 46.2074108064062 H 0.0 **** 0.06
5471 C 76.77754437060753 168.96916574488398 192.500127202813 C 0.0 **** -0.24
5472 H 76.17124410052753 169.00058748338483 191.59571014699225 H 0.0 **** 0.06
5473 H 76.17987448377417 169.30239238164938 193.3490837932738 H 0.0 **** 0.06
5474 H 77.63890963686029 169.62681146914352 192.3824770845352 H 0.0 **** 0.06
5475 H 77.11995388958627 167.94909296910808 192.67340391709436 H 0.0 **** 0.06
5476 C 171.51558990875176 97.3833784598491 118.70251093540193 C 0.0 **** -0.24
5477 H 170.7552455185269 96.77783743772707 119.19549982502673 H 0.0 **** 0.06
5478 H 171.0325790582257 98.15298450628211 118.0998961108206 H 0.0 **** 0.06
5479 H 172.12470002127344 96.74724460947075 118.05932497736319 H 0.0 **** 0.06
5480 H 172.14974446090298 97.85354033270767 119.45378810240919 H 0.0 **** 0.06
5481 C 58.944539738721204 182.01021210864917 189.71423187303407 C 0.0 **** -0.24
5482 H 58.444724262644286 181.46951029377902 190.5179075576188 H 0.0 **** 0.06
5483 H 59.98875982154627 181.70238345894228 189.66439709029885 H 0.0 **** 0.06
5484 H 58.88949925928492 183.0819709303859 189.9071778517711 H 0.0 **** 0.06
5485 H 58.45444736874538 181.7860475475034 188.76583464351978 H 0.0 **** 0.06
5486 C 40.72216929463869 8.819188847387665 228.32521677599414 C 0.0 **** -0.24
5487 H 41.25495561234915 8.271502269259287 229.1028945535731 H 0.0 **** 0.06
5488 H 40.26557389285817 9.709843781447404 228.75650553446388 H 0.0 **** 0.06
5489 H 39.94781768071971 8.181412098458935 227.89944575620024 H 0.0 **** 0.06
5490 H 41.42254753958508 9.111672435726206 227.54284459193417 H 0.0 **** 0.06
5491 C 114.77326360088395 221.7758835890846 37.0595190962196 C 0.0 **** -0.24
5492 H 114.49869051404494 221.65324117422313 36.011641703212575 H 0.0 **** 0.06
5493 H 115.73838766276958 221.30059642194436 37.23865657448766 H 0.0 **** 0.06
5494 H 114.01673335785708 221.31005291380484 37.6895510990788 H 0.0 **** 0.06
5495 H 114.84117108447256 222.83759158068295 37.295763204848356 H 0.0 **** 0.06
5496 C 131.8012328127218 227.5070205248268 75.76846455020112 C 0.0 **** -0.24
5497 H 131.21174498317717 228.0303259218361 75.01474235842747 H 0.0 **** 0.06
5498 H 131.13337065386494 227.04793428014193 76.49738054393279 H 0.0 **** 0.06
5499 H 132.45771981333996 228.21646660279166 76.27276669621119 H 0.0 **** 0.06
5500 H 132.40138659332646 226.7350773459135 75.28773101873117 H 0.0 **** 0.06
5501 C 78.79310917811088 196.47009410954203 179.77209215775022 C 0.0 **** -0.24
5502 H 77.77324148887266 196.12719542786377 179.94779919881216 H 0.0 **** 0.06
5503 H 79.34303063506735 195.70610233870346 179.22179265534538 H 0.0 **** 0.06
5504 H 79.28355530483074 196.65327020941263 180.72842352694647 H 0.0 **** 0.06
5505 H 78.77072545454413 197.3922176259031 179.19206220143656 H 0.0 **** 0.06
5506 C 231.5408873460301 164.12191516415194 67.43817794537387 C 0.0 **** -0.24
5507 H 232.47059580645583 163.7773510117356 67.89218819117858 H 0.0 **** 0.06
5508 H 231.49630001801364 165.20932771601213 67.48105525482285 H 0.0 **** 0.06
5509 H 230.69508298715104 163.70083580495424 67.98147135271066 H 0.0 **** 0.06
5510 H 231.50301129044902 163.79669698773995 66.39782986657781 H 0.0 **** 0.06
5511 C 135.67760176389143 209.49780386660598 52.69602133059979 C 0.0 **** -0.24
5512 H 135.14386408634445 210.24248200202533 53.28765985913142 H 0.0 **** 0.06
5513 H 136.19974594795823 209.99067774545725 51.87645293726189 H 0.0 **** 0.06
5514 H 134.9655840719977 208.77694922885686 52.29342106679454 H 0.0 **** 0.06
5515 H 136.39954929302326 208.98074839387706 53.329022107436145 H 0.0 **** 0.06
5516 C 112.73675892440758 171.6459206233339 237.9742164197349 C 0.0 **** -0.24
5517 H 112.90747135805663 171.51390831555594 239.0427165770605 H 0.0 **** 0.06
5518 H 111.72425488352346 172.0168830497469 237.81200660484063 H 0.0 **** 0.06
5519 H 112.85921848205513 170.6897451601814 237.4661330576967 H 0.0 **** 0.06
5520 H 113.45428030006843 172.36347488718943 237.5783786923121 H 0.0 **** 0.06
5521 C 42.35271510402757 49.659087129928736 227.38881993773686 C 0.0 **** -0.24
5522 H 42.23063691138927 50.57284396953338 227.9716183039863 H 0.0 **** 0.06
5523 H 43.32221917601029 49.67466414514108 226.89055817580845 H 0.0 **** 0.06
5524 H 41.5604794830559 49.59662795218898 226.64274880064698 H 0.0 **** 0.06
5525 H 42.29816013471097 48.79603095308714 228.05177419910785 H 0.0 **** 0.06
5526 C 127.8941303554304 74.33168340520399 129.52394508829647 C 0.0 **** -0.24
5527 H 128.5645897514977 75.1809157163344 129.65258894089573 H 0.0 **** 0.06
5528 H 128.0147364360337 73.9221843088568 128.5210641225178 H 0.0 **** 0.06
5529 H 126.86335661286125 74.65900068712395 129.6617183172129 H 0.0 **** 0.06
5530 H 128.13256538127055 73.56482907918928 130.26099240746572 H 0.0 **** 0.06
5531 C 146.51434168750205 73.10286480458927 5.060776267494731 C 0.0 **** -0.24
5532 H 146.5682237187761 74.18837377973742 4.986368286390956 H 0.0 **** 0.06
5533 H 146.20847487475666 72.68698750858772 4.101169509863524 H 0.0 **** 0.06
5534 H 145.7874241184713 72.82663494730767 5.824499045526721 H 0.0 **** 0.06
5535 H 147.49420775839423 72.70823355759418 5.332954975474024 H 0.0 **** 0.06
5536 C 39.280342176864806 26.666762980223325 159.66700856909225 C 0.0 **** -0.24
5537 H 38.73015569733789 26.803347971139118 160.59824428120592 H 0.0 **** 0.06
5538 H 40.04329033840001 25.90005373876953 159.80630186735007 H 0.0 **** 0.06
5539 H 39.754898522925984 27.605525137739022 159.38390710196202 H 0.0 **** 0.06
5540 H 38.59146217300044 26.35561533394501 158.88108487004894 H 0.0 **** 0.06
5541 C 129.383297179363 175.2719256404065 166.46847876660163 C 0.0 **** -0.24
5542 H 129.86340238368808 174.97436759417656 165.53564717311585 H 0.0 **** 0.06
5543 H 128.9643804442723 174.39223639298396 166.95753312977058 H 0.0 **** 0.06
5544 H 128.58588415894621 175.98349592759797 166.2544232375878 H 0.0 **** 0.06
5545 H 130.119100841641 175.73695871751937 167.12308533396066 H 0.0 **** 0.06
5546 C 214.08210588471167 101.64559426862377 169.47068293498864 C 0.0 **** -0.24
5547 H 214.58767736737016 101.44299407222755 170.4153200155777 H 0.0 **** 0.06
5548 H 214.6903443876709 101.27195843660306 168.64680930403944 H 0.0 **** 0.06
5549 H 213.93869324824675 102.720166935545 169.35920215477543 H 0.0 **** 0.06
5550 H 213.11314072535077 101.14673473400143 169.46331741721852 H 0.0 **** 0.06
5551 C 72.87437429972161 19.25809670823986 175.5581758623095 C 0.0 **** -0.24
5552 H 73.44998310939701 18.45691307088657 176.0212717944732 H 0.0 **** 0.06
5553 H 73.43981646391813 20.18869986078731 175.61103893776027 H 0.0 **** 0.06
5554 H 71.92775630288824 19.376024686296702 176.08632729631077 H 0.0 **** 0.06
5555 H 72.68052926538786 19.009975762986315 174.51509309518053 H 0.0 **** 0.06
5556 C 208.8249009807209 188.19418901263046 121.78133777303407 C 0.0 **** -0.24
5557 H 208.8585551590104 188.40415189271863 120.71208403402142 H 0.0 **** 0.06
5558 H 209.17074732442296 189.06915683711202 122.3336367883052 H 0.0 **** 0.06
5559 H 209.47029766965414 187.34469449065114 122.0053349661614 H 0.0 **** 0.06
5560 H 207.80191451310483 187.96027593785956 122.07412424516684 H 0.0 **** 0.06
5561 C 215.39205670432574 68.84429605613539 136.59119194228643 C 0.0 **** -0.24
5562 H 215.10995167051698 68.76451782309638 135.5413020653962 H 0.0 **** 0.06
5563 H 216.46924524795224 68.99646337720529 136.66781132091538 H 0.0 **** 0.06
5564 H 215.11601991151184 67.92692224186575 137.11144048494953 H 0.0 **** 0.06
5565 H 214.87167102756217 69.68924849495735 137.04375984528892 H 0.0 **** 0.06
5566 C 69.82748576812139 77.58937020875146 146.59006571132187 C 0.0 **** -0.24
5567 H 69.70061729005656 77.39460007903111 145.52484152785613 H 0.0 **** 0.06
5568 H 70.77107748951866 77.16086935376322 146.92700226887465 H 0.0 **** 0.06
5569 H 69.00394682514357 77.13494152621212 147.14134037610427 H 0.0 **** 0.06
5570 H 69.8333175386139 78.6652128122825 146.76493781154838 H 0.0 **** 0.06
5571 C 63.94866744738309 214.86692956084357 124.27622958538439 C 0.0 **** -0.24
5572 H 64.80118089721358 214.2777794764258 124.61205029770412 H 0.0 **** 0.06
5573 H 64.2081059425945 215.38960314199903 123.35581144151553 H 0.0 **** 0.06
5574 H 63.6834572450077 215.59352696425242 125.0447328960577 H 0.0 **** 0.06
5575 H 63.10089150023322 214.20678345818317 124.09328797043295 H 0.0 **** 0.06
5576 C 102.92969733413071 170.7538963055858 106.60082195133006 C 0.0 **** -0.24
5577 H 102.64933013442439 171.6779490492325 107.10480043646507 H 0.0 **** 0.06
5578 H 102.11342909268043 170.03609567519123 106.67667031382427 H 0.0 **** 0.06
5579 H 103.82217067671482 170.341026310359 107.0703698854903 H 0.0 **** 0.06
5580 H 103.13541514281619 170.96162315292634 105.55028526999712 H 0.0 **** 0.06
5581 C 135.51818108818236 16.909241025845205 154.70064304430323 C 0.0 **** -0.24
5582 H 134.79919788221846 17.515818275187172 154.15061690642418 H 0.0 **** 0.06
5583 H 136.5032433483365 17.011682606439706 154.24466536763822 H 0.0 **** 0.06
5584 H 135.21001216814153 15.86381374342696 154.67065488662746 H 0.0 **** 0.06
5585 H 135.56027095403283 17.24564947832684 155.73663501652302 H 0.0 **** 0.06
5586 C 204.331428836091 47.82834877074512 174.59144561560822 C 0.0 **** -0.24
5587 H 203.79789256738178 47.509637877402184 175.48770450636948 H 0.0 **** 0.06
5588 H 203.61348815537008 48.142879406087474 173.83431404004278 H 0.0 **** 0.06
5589 H 204.92466515322118 46.998224329099656 174.20881570820723 H 0.0 **** 0.06
5590 H 204.98882383782157 48.66237308243839 174.8378128856616 H 0.0 **** 0.06
5591 C 116.74289418574321 117.16756777139861 32.82290472680671 C 0.0 **** -0.24
5592 H 116.62646977401045 117.37155376261902 31.75847265215309 H 0.0 **** 0.06
5593 H 115.76773946135145 116.9537866407266 33.259862911820505 H 0.0 **** 0.06
5594 H 117.17941166918584 118.03717620828837 33.31301819452399 H 0.0 **** 0.06
5595 H 117.39841544958651 116.30744155134059 32.95699544780621 H 0.0 **** 0.06
5596 C 115.53130861585421 237.7698013364409 102.26524789308638 C 0.0 **** -0.24
5597 H 114.86356097089364 237.7326445224437 103.12588604094111 H 0.0 **** 0.06
5598 H 116.44406972359681 238.30028642526665 102.53661904230242 H 0.0 **** 0.06
5599 H 115.03733913762258 238.28988237922235 101.4450318092318 H 0.0 **** 0.06
5600 H 115.77904455888321 236.75418984056424 101.95474383155664 H 0.0 **** 0.06
5601 C 161.6000384443875 126.17769644427256 150.17400690043718 C 0.0 **** -0.24
5602 H 161.10631910435322 125.56560228574219 149.41991770587595 H 0.0 **** 0.06
5603 H 162.2416988066429 126.91076842278721 149.6841956796745 H 0.0 **** 0.06
5604 H 162.20415210950057 125.54081445710978 150.82010951017205 H 0.0 **** 0.06
5605 H 160.8491883040544 126.69359657402615 150.7725456983991 H 0.0 **** 0.06
5606 C 131.27708436640927 235.444164887313 113.16226295553017 C 0.0 **** -0.24
5607 H 131.03966683458052 235.53691456997964 112.10264982916664 H 0.0 **** 0.06
5608 H 131.50859142148443 234.4032371484305 113.39232928065442 H 0.0 **** 0.06
5609 H 130.4214857047413 235.76572910083445 113.75660625832086 H 0.0 **** 0.06
5610 H 132.13797671491375 236.06925953708986 113.39802471224331 H 0.0 **** 0.06
5611 C 114.24395446785269 58.91034453258584 215.58146331709287 C 0.0 **** -0.24
5612 H 113.85962349460277 58.48645578335842 214.65369254755944 H 0.0 **** 0.06
5613 H 114.48229387363546 59.96317951857321 215.42735167607933 H 0.0 **** 0.06
5614 H 115.1434620691553 58.3737433667867 215.88088579377344 H 0.0 **** 0.06
5615 H 113.48848566987732 58.818653536444884 216.36198444301485 H 0.0 **** 0.06
5616 C 14.80417661188116 3.1559867109087065 211.65557513557332 C 0.0 **** -0.24
5617 H 14.160974488651647 3.0764173067725267 212.53289453208453 H 0.0 **** 0.06
5618 H 14.260672935219162 3.6520052669433483 210.85152170891425 H 0.0 **** 0.06
5619 H 15.10312435036272 2.159028541889711 211.33214627789482 H 0.0 **** 0.06
5620 H 15.690710301729013 3.7369920952819484 211.90843146385117 H 0.0 **** 0.06
5621 C 214.8024470515234 183.65096603055147 78.503632593464 C 0.0 **** -0.24
5622 H 215.5903881960793 184.03867149028062 77.85919890231602 H 0.0 **** 0.06
5623 H 214.56685365078158 184.3878238781234 79.27157649246712 H 0.0 **** 0.06
5624 H 215.140451283706 182.72897773393163 78.97614109478974 H 0.0 **** 0.06
5625 H 213.9125707072985 183.44910072339917 77.90813360060585 H 0.0 **** 0.06
5626 C 46.01745175985948 134.8806593451363 189.48576079872498 C 0.0 **** -0.24
5627 H 46.3418631927581 134.21593405230652 190.28563145362955 H 0.0 **** 0.06
5628 H 45.25530942118323 135.56189458275983 189.86516979093972 H 0.0 **** 0.06
5629 H 45.602245877825226 134.29060329231137 188.66866931054454 H 0.0 **** 0.06
5630 H 46.8694343604038 135.45480977964954 189.12272156068443 H 0.0 **** 0.06
5631 C 80.11939981231987 95.06700630021857 112.81785200866057 C 0.0 **** -0.24
5632 H 81.0645110958545 95.54715261430457 112.56451281619891 H 0.0 **** 0.06
5633 H 79.94261994492717 94.23264838424606 112.1385190098053 H 0.0 **** 0.06
5634 H 79.30956875004665 95.79001130803098 112.72452478740658 H 0.0 **** 0.06
5635 H 80.16218709475484 94.69972265126773 113.84282055978903 H 0.0 **** 0.06
5636 C 202.79632880553152 77.0940179337041 186.68688815416868 C 0.0 **** -0.24
5637 H 202.58031202255987 77.15504344277056 185.620444437065 H 0.0 **** 0.06
5638 H 202.482938369176 76.12027461773852 187.06599233194822 H 0.0 **** 0.06
5639 H 202.25575281065574 77.88041413018152 187.21302803934293 H 0.0 **** 0.06
5640 H 203.86737503352015 77.21899038088725 186.8478646728007 H 0.0 **** 0.06
5641 C 15.410357371207823 49.85985799443188 160.58702779462953 C 0.0 **** -0.24
5642 H 15.816268013684834 49.6449944396426 159.5985907604214 H 0.0 **** 0.06
5643 H 14.462711362013323 50.388423326036445 160.48276705269095 H 0.0 **** 0.06
5644 H 16.114172899979593 50.480733818817086 161.14097858425973 H 0.0 **** 0.06
5645 H 15.248722175764868 48.92574859336919 161.12363402379577 H 0.0 **** 0.06
5646 C 210.71276585915967 86.33907753741985 65.6794726154207 C 0.0 **** -0.24
5647 H 210.24982896805165 86.24476233934988 66.66234171065673 H 0.0 **** 0.06
5648 H 210.08509463651586 86.95999434747765 65.04076789962741 H 0.0 **** 0.06
5649 H 210.82142211890812 85.35064832694013 65.23321811339989 H 0.0 **** 0.06
5650 H 211.69495867162965 86.80021309792045 65.78447188049694 H 0.0 **** 0.06
5651 C 219.1312396743962 196.12084447966924 3.7495898681014665 C 0.0 **** -0.24
5652 H 219.29998319919451 195.04683229662487 3.8299143708325687 H 0.0 **** 0.06
5653 H 220.06756795541187 196.64979600895336 3.92593950375165 H 0.0 **** 0.06
5654 H 218.3943595450084 196.42922816868085 4.4902198228943035 H 0.0 **** 0.06
5655 H 218.7625769914588 196.3566369437544 2.750873032680886 H 0.0 **** 0.06
5656 C 139.75462081073766 95.96086532119566 7.108773393635843 C 0.0 **** -0.24
5657 H 139.28575531579307 96.93043711083016 6.946553656509877 H 0.0 **** 0.06
5658 H 140.71380455013593 95.92980161987435 6.592863362307909 H 0.0 **** 0.06
5659 H 139.10712389076068 95.17486670082616 6.719047227548387 H 0.0 **** 0.06
5660 H 139.90982709247976 95.80690366575163 8.176658869001017 H 0.0 **** 0.06
5661 C 60.43032136225574 200.28044821451869 146.69474057353975 C 0.0 **** -0.24
5662 H 59.46640794734 200.06191818882104 146.23314319105057 H 0.0 **** 0.06
5663 H 60.41667063192884 199.95179557062102 147.73429897682936 H 0.0 **** 0.06
5664 H 60.61652780256165 201.35355031870523 146.65531213902585 H 0.0 **** 0.06
5665 H 61.217965657816166 199.7547353031262 146.15661795712774 H 0.0 **** 0.06
5666 C 125.83713711170319 128.39442777025957 47.650154388072124 C 0.0 **** -0.24
5667 H 126.59219785811487 129.14155391048703 47.89537749513967 H 0.0 **** 0.06
5668 H 126.23077718576118 127.71510380293768 46.89440045744803 H 0.0 **** 0.06
5669 H 124.94696767735465 128.89157699699214 47.264048704658535 H 0.0 **** 0.06
5670 H 125.57871077839079 127.83117767899586 48.546483416693604 H 0.0 **** 0.06
5671 C 112.45674881791146 154.52763990981884 71.90198415427434 C 0.0 **** -0.24
5672 H 111.6295307528641 153.81729123657644 71.918495199322 H 0.0 **** 0.06
5673 H 112.69459172264641 154.83006608074714 72.92270289630741 H 0.0 **** 0.06
5674 H 112.17192218996996 155.40402379258992 71.32022419829175 H 0.0 **** 0.06
5675 H 113.3291740639662 154.05765072740533 71.44943148880768 H 0.0 **** 0.06
5676 C 65.12175604105371 16.75883433313423 72.99567817796759 C 0.0 **** -0.24
5677 H 64.35720336868053 17.53519659965724 72.96259624968462 H 0.0 **** 0.06
5678 H 64.76425926026536 15.874566388258842 72.4675561960897 H 0.0 **** 0.06
5679 H 65.33215305091431 16.501824595324948 74.03387597351406 H 0.0 **** 0.06
5680 H 66.03124409238038 17.124545208566616 72.5195105554674 H 0.0 **** 0.06
5681 C 41.639140222717884 176.8535163378794 190.61497804060082 C 0.0 **** -0.24
5682 H 41.78575024614176 177.14136705866912 191.65675923058126 H 0.0 **** 0.06
5683 H 42.14851233907726 177.56721537303432 189.96716764622 H 0.0 **** 0.06
5684 H 40.57305964185608 176.84987824532533 190.38609261839468 H 0.0 **** 0.06
5685 H 42.048809969774226 175.85686606149167 190.45276063192804 H 0.0 **** 0.06
5686 C 133.91122054748905 111.32726121160226 239.27815207215133 C 0.0 **** -0.24
5687 H 133.92242181511935 110.94853619045685 238.2562658474851 H 0.0 **** 0.06
5688 H 134.46364443142602 110.64542413813956 239.9246902586462 H 0.0 **** 0.06
5689 H 132.88103966895912 111.40505449848186 239.6263016596402 H 0.0 **** 0.06
5690 H 134.3792099840965 112.31239593233272 239.30476144709849 H 0.0 **** 0.06
5691 C 233.38069362840218 235.41717146564076 141.68087429290156 C 0.0 **** -0.24
5692 H 232.61470218770344 236.06072395891292 142.11430119175543 H 0.0 **** 0.06
5693 H 233.91142763622832 235.96132519095048 140.8996984456083 H 0.0 **** 0.06
5694 H 232.91079199492697 234.53178026543748 141.25299645564914 H 0.0 **** 0.06
5695 H 234.08400987575627 235.11645900329665 142.456690527102 H 0.0 **** 0.06
5696 C 180.40988000926592 73.86177592965493 236.4988801288226 C 0.0 **** -0.24
5697 H 181.09629713088316 73.90168617194632 235.65314714731207 H 0.0 **** 0.06
5698 H 180.97802396727243 73.87868240953986 237.42828379296273 H 0.0 **** 0.06
5699 H 179.82312594459557 72.94491649250739 236.44728551661728 H 0.0 **** 0.06
5700 H 179.74262007738895 74.72285613494722 236.46490028251105 H 0.0 **** 0.06
5701 C 246.3750372936983 123.9181513517504 236.5155760511306 C 0.0 **** -0.24
5702 H 246.46687939254292 124.62429819514779 237.34090340125672 H 0.0 **** 0.06
5703 H 245.35439893001745 123.9401736273137 236.13073330359492 H 0.0 **** 0.06
5704 H 246.6087621149562 122.91454847823832 236.86904958122082 H 0.0 **** 0.06
5705 H 247.06896772212224 124.19574052536038 235.7218466355774 H 0.0 **** 0.06
5706 C 217.5540921375695 62.85230389345915 24.936411484590337 C 0.0 **** -0.24
5707 H 216.49053994482676 62.93193904759954 25.1593184955495 H 0.0 **** 0.06
5708 H 218.11962811554875 62.827725725851025 25.86904461779484 H 0.0 **** 0.06
5709 H 217.86726800451004 63.712050189169446 24.34436186745458 H 0.0 **** 0.06
5710 H 217.74059416128873 61.9367973614828 24.374577559944896 H 0.0 **** 0.06
5711 C 74.61532705837067 91.82198532740091 43.38526879083105 C 0.0 **** -0.24
5712 H 73.72411018994609 91.20278698469309 43.28256301667291 H 0.0 **** 0.06
5713 H 75.20398500390274 91.47188603780708 44.23355464196305 H 0.0 **** 0.06
5714 H 74.31963352863966 92.8588228311626 43.55117814778805 H 0.0 **** 0.06
5715 H 75.21193669184632 91.75476090805742 42.476269682751905 H 0.0 **** 0.06
5716 C 124.6086161503008 124.85068571419308 248.67807026663806 C 0.0 **** -0.24
5717 H 123.53965616627656 125.05870594667167 248.64286095567869 H 0.0 **** 0.06
5718 H 124.83662450933878 124.01218475018612 248.0192919276269 H 0.0 **** 0.06
5719 H 124.89580532643939 124.59913557851377 249.69918068109305 H 0.0 **** 0.06
5720 H 125.16057200290356 125.73144260976716 248.35061096839297 H 0.0 **** 0.06
5721 C 72.0179283036826 234.19696588924836 85.70715803495096 C 0.0 **** -0.24
5722 H 72.26791241751167 235.25798250825494 85.71874461360164 H 0.0 **** 0.06
5723 H 71.21446782457122 234.00508965251632 86.41878950135612 H 0.0 **** 0.06
5724 H 72.89598300034024 233.61429553402178 85.98492371201121 H 0.0 **** 0.06
5725 H 71.69369572283912 233.91127484688553 84.70669742770505 H 0.0 **** 0.06
5726 C 117.51280126180558 210.62950636674825 61.783539107297315 C 0.0 **** -0.24
5727 H 118.5300591881464 210.92848638220784 61.52891224341471 H 0.0 **** 0.06
5728 H 117.33699130364414 209.6104319176355 61.43803700663935 H 0.0 **** 0.06
5729 H 116.80554667605173 211.3043735267567 61.300504072495244 H 0.0 **** 0.06
5730 H 117.38099365046347 210.6762527667226 62.86370302046282 H 0.0 **** 0.06
5731 C 210.98665216150715 105.92425006900945 180.45579877076267 C 0.0 **** -0.24
5732 H 209.9343271100051 106.06410479236493 180.70171583964674 H 0.0 **** 0.06
5733 H 211.5262328921407 106.85549873236803 180.62817374284487 H 0.0 **** 0.06
5734 H 211.08016755674998 105.63833850500367 179.40793665130303 H 0.0 **** 0.06
5735 H 211.40532823771758 105.13938515008445 181.08460236300175 H 0.0 **** 0.06
5736 C 143.57257282892098 238.47133044685611 181.1614113449411 C 0.0 **** -0.24
5737 H 142.7863923381195 238.44222199302234 181.91513111535716 H 0.0 **** 0.06
5738 H 144.18362203678066 237.57133726675806 181.23830557024422 H 0.0 **** 0.06
5739 H 144.1972444399447 239.3497996897637 181.32262466588554 H 0.0 **** 0.06
5740 H 143.12303250083912 238.52196283788058 180.1695840282776 H 0.0 **** 0.06
5741 C 159.2158160628201 35.961735789426 245.65410697759802 C 0.0 **** -0.24
5742 H 159.52422271069779 35.37089717116302 244.7912277031782 H 0.0 **** 0.06
5743 H 159.83646888682046 35.70282478245937 246.51213770844677 H 0.0 **** 0.06
5744 H 158.1716315507597 35.75109688429595 245.88315176843975 H 0.0 **** 0.06
5745 H 159.33194316241278 37.02160685396265 245.42695637702485 H 0.0 **** 0.06
5746 C 32.098025055934116 122.69896520568906 120.44968808124932 C 0.0 **** -0.24
5747 H 31.314658474083387 123.24686905338788 120.97421334260221 H 0.0 **** 0.06
5748 H 31.705455479762065 121.73868932436042 120.11244047650686 H 0.0 **** 0.06
5749 H 32.937544655369734 122.53109753656165 121.12491979314288 H 0.0 **** 0.06
5750 H 32.432897152470005 123.27818548614388 119.5899310794097 H 0.0 **** 0.06
5751 C 15.031525890538518 29.54110004854502 134.55030472011825 C 0.0 **** -0.24
5752 H 14.659612199847885 29.90366549939742 133.591626944885 H 0.0 **** 0.06
5753 H 16.10884859804227 29.384314251020754 134.4853002619137 H 0.0 **** 0.06
5754 H 14.5413943142008 28.599692151208586 134.79827805831846 H 0.0 **** 0.06
5755 H 14.817408353111972 30.277792304511337 135.32442536091813 H 0.0 **** 0.06
5756 C 214.63602355985623 230.22050570864278 156.04024813817816 C 0.0 **** -0.24
5757 H 214.87776823623858 230.37167349616573 157.09221267120557 H 0.0 **** 0.06
5758 H 213.88418217840837 229.4359716207808 155.9497584735354 H 0.0 **** 0.06
5759 H 215.53480570205826 229.9262531001392 155.49947312033342 H 0.0 **** 0.06
5760 H 214.24574122102314 231.14742593143072 155.62052899234345 H 0.0 **** 0.06
5761 C 69.23350334373222 96.26845295476105 191.6720157310383 C 0.0 **** -0.24
5762 H 68.70408476373456 97.12636879265216 192.0870421828035 H 0.0 **** 0.06
5763 H 68.89825561762558 95.35899195154576 192.17122432554822 H 0.0 **** 0.06
5764 H 70.30475305185425 96.39470029939815 191.82626628090082 H 0.0 **** 0.06
5765 H 69.02600315191899 96.19569042047405 190.60416046999524 H 0.0 **** 0.06
5766 C 193.6257164405496 146.34982894166498 206.7455453825005 C 0.0 **** -0.24
5767 H 193.2755817739196 146.0898226270607 205.74685724523664 H 0.0 **** 0.06
5768 H 193.6571321353053 147.43466593044403 206.8481676692998 H 0.0 **** 0.06
5769 H 194.62524307701585 145.941261043786 206.89799654116027 H 0.0 **** 0.06
5770 H 192.94611430260784 145.9340953920374 207.48864369837202 H 0.0 **** 0.06
5771 C 15.305137558535208 212.19099476894056 177.88636706449805 C 0.0 **** -0.24
5772 H 14.690350915346855 213.03054247344346 178.21183996726978 H 0.0 **** 0.06
5773 H 15.627628330152746 211.61826649873012 178.75608575634703 H 0.0 **** 0.06
5774 H 16.17864325219628 212.56586704940568 177.354017429211 H 0.0 **** 0.06
5775 H 14.723138578585989 211.54927347837312 177.22413859100962 H 0.0 **** 0.06
5776 C 118.91773326292551 97.61291915019046 191.02487789482663 C 0.0 **** -0.24
5777 H 119.11669605450155 96.7403556584255 191.64748237136283 H 0.0 **** 0.06
5778 H 118.73044091324621 98.47796186988094 191.6612836150321 H 0.0 **** 0.06
5779 H 118.0430958613853 97.42266598052183 190.4021719252398 H 0.0 **** 0.06
5780 H 119.7807660247247 97.80973855307732 190.38886441736818 H 0.0 **** 0.06
5781 C 1.3750687038692462 201.98797054273 167.978863538556 C 0.0 **** -0.24
5782 H 2.39922943149449 201.7389526721457 167.70192768251118 H 0.0 **** 0.06
5783 H 0.7604827280392499 202.0466336686313 167.08044922043587 H 0.0 **** 0.06
5784 H 1.3621369129426455 202.9497030480431 168.4912783332355 H 0.0 **** 0.06
5785 H 0.9801917786666792 201.21752819886476 168.64038252405422 H 0.0 **** 0.06
5786 C 134.20675510527988 33.67836808199705 71.38513121436421 C 0.0 **** -0.24
5787 H 134.63206670194498 33.59582609993089 72.38484588693183 H 0.0 **** 0.06
5788 H 134.02984476247886 32.68128324774969 70.98171191122407 H 0.0 **** 0.06
5789 H 134.9014454320461 34.2142293567977 70.73830000499626 H 0.0 **** 0.06
5790 H 133.26350075254527 34.22300822366769 71.43521033826207 H 0.0 **** 0.06
5791 C 119.05353836789683 121.66109710012717 47.67718349364115 C 0.0 **** -0.24
5792 H 120.04892339617695 121.33405518037887 47.37717550400015 H 0.0 **** 0.06
5793 H 118.91953276429066 121.48386534935565 48.743778057177565 H 0.0 **** 0.06
5794 H 118.30351533556748 121.10020486446928 47.118043138927476 H 0.0 **** 0.06
5795 H 118.94268517667734 122.72475039064153 47.467195843736306 H 0.0 **** 0.06
5796 C 25.705271175335696 127.87877453478421 180.4265440852386 C 0.0 **** -0.24
5797 H 26.32857736130805 127.7313501223156 179.54440519979096 H 0.0 **** 0.06
5798 H 25.072200453403667 127.00359758273564 180.57520255153787 H 0.0 **** 0.06
5799 H 25.080916149709736 128.76065469632897 180.28516252337263 H 0.0 **** 0.06
5800 H 26.34163627376327 128.01993376084997 181.30053098997803 H 0.0 **** 0.06
5801 C 235.25005535588554 209.2468951993193 237.0944476424278 C 0.0 **** -0.24
5802 H 235.66938462114086 209.80399186006866 236.25707744954713 H 0.0 **** 0.06
5803 H 234.43015103900507 208.62132896942873 236.7397133968422 H 0.0 **** 0.06
5804 H 234.87801771067 209.94357219298055 237.84503922038965 H 0.0 **** 0.06
5805 H 236.02394574825792 208.61671439249605 237.53409681195728 H 0.0 **** 0.06
5806 C 38.64931542217121 132.26715609534918 36.52045171139335 C 0.0 **** -0.24
5807 H 38.43584143875481 131.81673463759878 37.4906068293718 H 0.0 **** 0.06
5808 H 38.2188592732426 133.26791817503064 36.4831913601049 H 0.0 **** 0.06
5809 H 38.21219827469386 131.6532171003972 35.73247640298966 H 0.0 **** 0.06
5810 H 39.72773858395166 132.3279460008512 36.378027592600105 H 0.0 **** 0.06
5811 C 67.23858400741403 164.60899264949595 126.4657629857791 C 0.0 **** -0.24
5812 H 66.15125455277735 164.54180403147464 126.5078809193486 H 0.0 **** 0.06
5813 H 67.54532465829132 164.92025229110612 125.46721895707105 H 0.0 **** 0.06
5814 H 67.67068595556967 163.6340258911505 126.69183443086311 H 0.0 **** 0.06
5815 H 67.58480753771056 165.3388843551716 127.19748488199235 H 0.0 **** 0.06
5816 C 40.438649741215556 150.06202612873628 213.175565885109 C 0.0 **** -0.24
5817 H 39.86025556485954 150.79149478418245 212.6078703375554 H 0.0 **** 0.06
5818 H 39.92077204144118 149.83603410554934 214.10842540087756 H 0.0 **** 0.06
5819 H 41.42357266602747 150.472827697661 213.39695574415927 H 0.0 **** 0.06
5820 H 40.548258780651736 149.1493390611193 212.5896761806032 H 0.0 **** 0.06
5821 C 62.58469152667101 214.14732213507926 128.0404168908162 C 0.0 **** -0.24
5822 H 63.516602041300104 213.65385429962782 127.76468902481244 H 0.0 **** 0.06
5823 H 62.27770771625646 214.8185172965387 127.238061253669 H 0.0 **** 0.06
5824 H 62.73488858561515 214.71961639380194 128.9556281724169 H 0.0 **** 0.06
5825 H 61.811357567029006 213.396529960068 128.20373948214922 H 0.0 **** 0.06
5826 C 115.91835771940472 45.992263208705 189.9999746429291 C 0.0 **** -0.24
5827 H 116.73852916279154 46.00828489652636 190.71715221510442 H 0.0 **** 0.06
5828 H 116.28274070568929 46.317483648615934 189.02408668774692 H 0.0 **** 0.06
5829 H 115.12904246900521 46.66496659514118 190.33589302767817 H 0.0 **** 0.06
5830 H 115.5237426193352 44.97958568017751 189.92176525875482 H 0.0 **** 0.06
5831 C 12.380217014647002 202.26630506390484 207.57340600673308 C 0.0 **** -0.24
5832 H 13.316183205052923 202.38748777857523 207.02775812346508 H 0.0 **** 0.06
5833 H 11.973357988332808 201.27280065579086 207.37937427332534 H 0.0 **** 0.06
5834 H 11.666844171452965 203.02141714854272 207.24367051799248 H 0.0 **** 0.06
5835 H 12.564265236478434 202.38160339558544 208.64051897841642 H 0.0 **** 0.06
5836 C 65.76530066032498 8.684707623354399 108.13768281509172 C 0.0 **** -0.24
5837 H 66.30773130511969 7.898032555776197 107.61341866304187 H 0.0 **** 0.06
5838 H 66.30803062444156 9.626476342593591 108.04187853807491 H 0.0 **** 0.06
5839 H 65.67488555505847 8.423457665482914 109.1921851338266 H 0.0 **** 0.06
5840 H 64.77158091521983 8.79225943664666 107.70326913968648 H 0.0 **** 0.06
5841 C 25.626468773029004 195.69287043679162 159.23445945159878 C 0.0 **** -0.24
5842 H 26.394051492442117 195.52163450564882 158.48030589593475 H 0.0 **** 0.06
5843 H 26.09903882156388 195.95585049391934 160.18135259098983 H 0.0 **** 0.06
5844 H 25.035522737591663 194.78589370130035 159.3639992463344 H 0.0 **** 0.06
5845 H 24.97571041642044 196.50688672093054 158.91444129026334 H 0.0 **** 0.06
5846 C 131.2421197813012 209.2964465835223 204.71035959904037 C 0.0 **** -0.24
5847 H 130.84883860853486 209.2790725139513 203.69289773226726 H 0.0 **** 0.06
5848 H 131.47419068813528 208.27977727636582 205.02682788891525 H 0.0 **** 0.06
5849 H 130.49651458829382 209.72497896697942 205.37992472613425 H 0.0 **** 0.06
5850 H 132.14705216126492 209.90306206418813 204.73891851094606 H 0.0 **** 0.06
5851 C 204.89917599322936 25.723811414756966 145.46285145399932 C 0.0 **** -0.24
5852 H 204.3840613172982 24.76754466521831 145.37259436677166 H 0.0 **** 0.06
5853 H 205.96909142709845 25.550226421481483 145.5861024272741 H 0.0 **** 0.06
5854 H 204.51653002904678 26.262015295276882 146.32977429578185 H 0.0 **** 0.06
5855 H 204.7280924330049 26.31453695095692 144.56289238501728 H 0.0 **** 0.06
5856 C 178.27766660364796 150.02773444516816 95.78776065556522 C 0.0 **** -0.24
5857 H 179.25298005999161 149.5959884070644 95.56027526690869 H 0.0 **** 0.06
5858 H 177.54497797593103 149.67025655845777 95.0645425002725 H 0.0 **** 0.06
5859 H 178.34035799619377 151.11431447902973 95.73659250508561 H 0.0 **** 0.06
5860 H 177.9740015446916 149.72778570131592 96.7915170342362 H 0.0 **** 0.06
5861 C 232.40310376857153 203.4330902264783 86.91613816572365 C 0.0 **** -0.24
5862 H 231.99610308124602 204.33918063475357 86.4678133090159 H 0.0 **** 0.06
5863 H 233.46134363273606 203.5787541307504 87.13257980756401 H 0.0 **** 0.06
5864 H 232.28545163812012 202.59995820826953 86.2225081527163 H 0.0 **** 0.06
5865 H 231.8688358323444 203.2141089049199 87.84101303772624 H 0.0 **** 0.06
5866 C 232.72382930102185 120.71745456701714 235.38612324894038 C 0.0 **** -0.24
5867 H 233.72129696444347 120.75948926668102 235.8232650000637 H 0.0 **** 0.06
5868 H 232.66893268527625 121.40115669587794 234.5388226338505 H 0.0 **** 0.06
5869 H 231.9861992595519 121.00538642827922 236.1353153044812 H 0.0 **** 0.06
5870 H 232.51935422729207 119.70143134827103 235.04660101878733 H 0.0 **** 0.06
5871 C 77.77663448022335 180.35469961058317 118.29548704361775 C 0.0 **** -0.24
5872 H 78.23813708633332 181.2173390303198 117.81525049588925 H 0.0 **** 0.06
5873 H 78.304937012789 180.12900926515977 119.22173154147794 H 0.0 **** 0.06
5874 H 77.83043996770729 179.49493401474032 117.62704881419359 H 0.0 **** 0.06
5875 H 76.73241424489953 180.57842399271487 118.51624274692082 H 0.0 **** 0.06
5876 C 179.4402140519211 39.066755494385774 192.67958763839187 C 0.0 **** -0.24
5877 H 179.38324349504305 38.43571298868298 191.79249785517712 H 0.0 **** 0.06
5878 H 178.43543744552582 39.3702090686854 192.97447146898375 H 0.0 **** 0.06
5879 H 180.03788260760288 39.95130127474752 192.45916842387527 H 0.0 **** 0.06
5880 H 179.90419722317841 38.5084925633075 193.49274671645787 H 0.0 **** 0.06
5881 C 218.89260947672497 36.7861364017847 60.73806991662926 C 0.0 **** -0.24
5882 H 219.74985966196598 36.34152642238615 60.23242116850261 H 0.0 **** 0.06
5883 H 218.3135349299364 36.002359692091105 61.228523102838295 H 0.0 **** 0.06
5884 H 218.2658416197134 37.29816848037858 60.00790776105089 H 0.0 **** 0.06
5885 H 219.24064915101457 37.501697417818534 61.48317285501773 H 0.0 **** 0.06
5886 C 125.90416105570938 37.801985047446365 141.06665012455207 C 0.0 **** -0.24
5887 H 125.50070418496657 38.65186315744732 141.61755966813652 H 0.0 **** 0.06
5888 H 126.73240540919949 37.36650036220152 141.62630265615311 H 0.0 **** 0.06
5889 H 126.25970360668188 38.13653614906242 140.0921935467907 H 0.0 **** 0.06
5890 H 125.12357379848532 37.053785502354785 140.93116013399077 H 0.0 **** 0.06
5891 C 233.40358974339273 211.69987142881558 192.62908573093242 C 0.0 **** -0.24
5892 H 232.38785431566072 211.8921327082958 192.28345194969114 H 0.0 **** 0.06
5893 H 234.04343169136672 211.4827090231021 191.77338464595994 H 0.0 **** 0.06
5894 H 233.40108609402517 210.84727708481216 193.3073557172751 H 0.0 **** 0.06
5895 H 233.7814255996932 212.57916242990697 193.15147158155838 H 0.0 **** 0.06
5896 C 228.3057666829796 210.51369765115538 94.92959715808314 C 0.0 **** -0.24
5897 H 228.24995532655691 211.32778348859273 94.206476893417 H 0.0 **** 0.06
5898 H 227.29963550813633 210.24495826550555 95.25215688150041 H 0.0 **** 0.06
5899 H 228.89060524641584 210.8348469399602 95.79191471242024 H 0.0 **** 0.06
5900 H 228.7831041640995 209.64953095357345 94.46856200968159 H 0.0 **** 0.06
5901 C 80.8857268850634 98.40438923864335 103.67488806656965 C 0.0 **** -0.24
5902 H 81.23392189359294 98.14644344622323 102.67451524739593 H 0.0 **** 0.06
5903 H 80.00421530763046 99.04187476403689 103.59984726198994 H 0.0 **** 0.06
5904 H 81.67455966658639 98.93513584992172 104.20795696132208 H 0.0 **** 0.06
5905 H 80.63136713793753 97.49340091580711 104.2168206874486 H 0.0 **** 0.06
5906 C 214.2041868195136 196.6800872411227 3.7737419760182718 C 0.0 **** -0.24
5907 H 215.29410511249947 196.68639951518907 3.7534480975445064 H 0.0 **** 0.06
5908 H 213.85861373649232 196.86481383210295 4.790870237277375 H 0.0 **** 0.06
5909 H 213.83958336998907 195.71002824532906 3.435640748740795 H 0.0 **** 0.06
5910 H 213.8247280755157 197.46102281594756 3.1135084758488745 H 0.0 **** 0.06
5911 C 242.46257183924067 101.27339531179874 46.04845732688757 C 0.0 **** -0.24
5912 H 241.78798968560736 100.4180934632933 46.03409688134421 H 0.0 **** 0.06
5913 H 243.21272703881678 101.15774601080852 45.26551544235862 H 0.0 **** 0.06
5914 H 242.9546406931216 101.33148699169226 47.01841771347898 H 0.0 **** 0.06
5915 H 241.89341516476352 102.18702029222862 45.874343420235434 H 0.0 **** 0.06
5916 C 89.122151807943 57.44557219249086 57.33882805536609 C 0.0 **** -0.24
5917 H 89.03909386358077 58.379932978724895 56.78224842608725 H 0.0 **** 0.06
5918 H 89.26614157362542 57.664384865389565 58.39628562813462 H 0.0 **** 0.06
5919 H 89.97339495588128 56.876186570204624 56.96567703389147 H 0.0 **** 0.06
5920 H 88.20954943391902 56.86309345192339 57.20762209204267 H 0.0 **** 0.06
5921 C 7.74707491672396 82.49068066481416 23.618203690841483 C 0.0 **** -0.24
5922 H 8.302865550994085 82.45389348426482 24.55498170104741 H 0.0 **** 0.06
5923 H 7.319086007914066 81.50913554987727 23.410539861117144 H 0.0 **** 0.06
5924 H 8.418679838815407 82.77264053202072 22.806960178391634 H 0.0 **** 0.06
5925 H 6.946669581006802 83.22635760916933 23.699100564586857 H 0.0 **** 0.06
5926 C 204.20006534771744 19.255186925729447 106.22893593803016 C 0.0 **** -0.24
5927 H 204.54015183108677 19.636384579203394 107.19187212645528 H 0.0 **** 0.06
5928 H 203.65906407634955 20.039328026443428 105.69850786986282 H 0.0 **** 0.06
5929 H 203.54122652025637 18.402362159212856 106.38940361893353 H 0.0 **** 0.06
5930 H 205.06105598609088 18.94251144393283 105.63806815783272 H 0.0 **** 0.06
5931 C 91.69724281796272 61.12230943818585 132.77599714527116 C 0.0 **** -0.24
5932 H 91.91711206330422 62.188063175722704 132.8299512463211 H 0.0 **** 0.06
5933 H 91.13408663592045 60.91235157349328 131.8660985856163 H 0.0 **** 0.06
5934 H 91.10662100569996 60.829242768376474 133.64426517758395 H 0.0 **** 0.06
5935 H 92.63016143413464 60.55947221512494 132.76376289382543 H 0.0 **** 0.06
5936 C 177.65946238888722 161.13807122645576 136.64454127270162 C 0.0 **** -0.24
5937 H 177.6841648066325 162.09241708463293 136.11892702418058 H 0.0 **** 0.06
5938 H 176.6312605189521 160.77770812574448 136.69418936649842 H 0.0 **** 0.06
5939 H 178.0469602416713 161.27052433193637 137.65483932817423 H 0.0 **** 0.06
5940 H 178.27375055622002 160.41272157157616 136.11114977147153 H 0.0 **** 0.06
5941 C 130.06446611289795 64.37117477153194 32.06410501938828 C 0.0 **** -0.24
5942 H 130.05986341418154 65.40423720024631 31.71905084239617 H 0.0 **** 0.06
5943 H 130.02151695316422 63.70118202997381 31.205782435121733 H 0.0 **** 0.06
5944 H 129.19973981037398 64.19868290130489 32.704445194615545 H 0.0 **** 0.06
5945 H 130.97830947228385 64.18046571465513 32.628379736655546 H 0.0 **** 0.06
5946 C 195.95618057469312 82.14645628024152 1.7835988757460512 C 0.0 **** -0.24
5947 H 195.09061973338396 82.14960587220219 1.1218722938159402 H 0.0 **** 0.06
5948 H 195.6249460570039 82.01855540845801 2.8142853620922352 H 0.0 **** 0.06
5949 H 196.48999935346177 83.09325550786181 1.6874462484274204 H 0.0 **** 0.06
5950 H 196.61994935337367 81.32584284317491 1.5102306799462752 H 0.0 **** 0.06
5951 C 224.92475814045008 97.37549992195753 171.52770287912912 C 0.0 **** -0.24
5952 H 225.19454090860023 97.62917249023704 172.55322570298273 H 0.0 **** 0.06
5953 H 224.4982290423102 98.25028397350405 171.0372853462313 H 0.0 **** 0.06
5954 H 224.1930427662332 96.56830258891696 171.53323777196155 H 0.0 **** 0.06
5955 H 225.8161202230359 97.05453015682829 170.98777267428758 H 0.0 **** 0.06
5956 C 148.52846573267513 168.50717060829103 53.20874498505515 C 0.0 **** -0.24
5957 H 148.4591391996071 168.72761004118655 52.14340660704684 H 0.0 **** 0.06
5958 H 148.20815220194683 169.37743810439397 53.78148165687861 H 0.0 **** 0.06
5959 H 149.5601567288097 168.26396202447359 53.46345235700309 H 0.0 **** 0.06
5960 H 147.8867852548158 167.6585537671721 53.445857174937856 H 0.0 **** 0.06
5961 C 194.8105127585422 241.56368307486576 243.80238127750627 C 0.0 **** -0.24
5962 H 195.4133994954618 241.8767971106198 242.94953031774654 H 0.0 **** 0.06
5963 H 194.12496143825663 242.36555580959632 244.07628102672226 H 0.0 **** 0.06
5964 H 195.4622416667501 241.33886240026857 244.6458370558363 H 0.0 **** 0.06
5965 H 194.24036675648097 240.67384485757282 243.53594732673372 H 0.0 **** 0.06
5966 C 31.80094886419036 63.15836984461865 116.88765452918051 C 0.0 **** -0.24
5967 H 31.538544812469908 64.1436180187832 117.27347148206769 H 0.0 **** 0.06
5968 H 31.916450666606963 62.46241502093662 117.71881684196597 H 0.0 **** 0.06
5969 H 32.73707075060372 63.22255740634489 116.33304084457887 H 0.0 **** 0.06
5970 H 31.009365010461067 62.80545164242608 116.22559537205893 H 0.0 **** 0.06
5971 C 157.5831396779729 44.26285775118464 19.39588417655125 C 0.0 **** -0.24
5972 H 158.4995153337296 44.822039657511056 19.212045105758094 H 0.0 **** 0.06
5973 H 157.00345303405467 44.7607557900607 20.174144750947235 H 0.0 **** 0.06
5974 H 157.83274046211156 43.252477242763334 19.71825544694981 H 0.0 **** 0.06
5975 H 156.9954371023197 44.2162221340503 18.47909174061202 H 0.0 **** 0.06
5976 C 182.05530968748127 227.65417005513487 170.31923475287948 C 0.0 **** -0.24
5977 H 182.78105031163278 228.46175935438765 170.4126244448092 H 0.0 **** 0.06
5978 H 182.2582086980907 227.08737853795867 169.40994659858515 H 0.0 **** 0.06
5979 H 181.05032103758376 228.07177943938154 170.27129968076017 H 0.0 **** 0.06
5980 H 182.13362111017105 226.99473104269816 171.18335863005902 H 0.0 **** 0.06
5981 C 66.1165798416211 108.49534036935489 101.79429579880508 C 0.0 **** -0.24
5982 H 65.24204179559496 108.92203904440512 101.30391328624896 H 0.0 **** 0.06
5983 H 66.09148963699755 107.4089786040791 101.70075874823257 H 0.0 **** 0.06
5984 H 66.11261061613422 108.76999109725901 102.84839578319722 H 0.0 **** 0.06
5985 H 67.0217252059717 108.87969454569941 101.32264198622104 H 0.0 **** 0.06
5986 C 190.79416102310424 208.6603725159243 128.81003176056896 C 0.0 **** -0.24
5987 H 190.60699457738167 208.98059569904945 129.834371250874 H 0.0 **** 0.06
5988 H 190.50187148350903 209.4557768991718 128.12285181122795 H 0.0 **** 0.06
5989 H 190.21243792597906 207.76323027306364 128.5965965001472 H 0.0 **** 0.06
5990 H 191.8550075427898 208.44433978729393 128.68461211340033 H 0.0 **** 0.06
5991 C 148.5127903734896 21.625724763141108 224.59771286261156 C 0.0 **** -0.24
5992 H 147.687147783369 21.624887648820604 223.8852472892191 H 0.0 **** 0.06
5993 H 148.67887176356922 20.611725918400495 224.96100734433048 H 0.0 **** 0.06
5994 H 148.26743586697344 22.276790998986797 225.43651825578576 H 0.0 **** 0.06
5995 H 149.41534802748006 21.988919337963225 224.10662636611056 H 0.0 **** 0.06
5996 C 218.20225588459675 73.63597264336039 54.97939423657516 C 0.0 **** -0.24
5997 H 218.80747308861964 73.68975956663525 54.07362567537933 H 0.0 **** 0.06
5998 H 217.25994691175404 74.15900686261472 54.81690862985087 H 0.0 **** 0.06
5999 H 218.74025300994475 74.10332478331969 55.804147314285814 H 0.0 **** 0.06
6000 H 218.00268229174563 72.59207157132909 55.22022093066326 H 0.0 **** 0.06
6001 C 232.66002730390227 100.36169633336428 236.23918975879835 C 0.0 **** -0.24
6002 H 231.7106452540073 100.11986801138764 235.76056113160004 H 0.0 **** 0.06
6003 H 232.49510326543526 101.10845165788439 237.01676170345922 H 0.0 **** 0.06
6004 H 233.3511987403847 100.75742576388527 235.49498962928956 H 0.0 **** 0.06
6005 H 233.08191581581087 99.46038447643176 236.68431400312218 H 0.0 **** 0.06
6006 C 11.418665075182247 221.83062104704058 160.13519811067897 C 0.0 **** -0.24
6007 H 11.521038005899442 222.73154574665222 159.53018402938218 H 0.0 **** 0.06
6008 H 11.940694817317677 221.00623769453736 159.64888585444976 H 0.0 **** 0.06
6009 H 10.362746998239373 221.5813526155966 160.23971524867886 H 0.0 **** 0.06
6010 H 11.851245603006163 222.00297146564287 161.12069442652043 H 0.0 **** 0.06
6011 C 170.11653384919686 31.203685367571637 204.13909336879462 C 0.0 **** -0.24
6012 H 170.68272742063166 31.457466967593376 205.03539761989296 H 0.0 **** 0.06
6013 H 169.1372438750802 30.818635480373047 204.42479479993855 H 0.0 **** 0.06
6014 H 170.6542697926433 30.44332303192172 203.57330388838594 H 0.0 **** 0.06
6015 H 169.99170895179785 32.093879608212404 203.52382715556465 H 0.0 **** 0.06
6016 C 53.755697529297436 147.4453183659454 198.8190922475912 C 0.0 **** -0.24
6017 H 54.462556425488856 147.93504403828027 199.48913167852663 H 0.0 **** 0.06
6018 H 52.9538061250705 146.9946430383413 199.4029496646909 H 0.0 **** 0.06
6019 H 54.271657256905144 146.67085071894252 198.2514885186357 H 0.0 **** 0.06
6020 H 53.33699136454247 148.18175625010704 198.13263979700218 H 0.0 **** 0.06
6021 C 126.9769219193258 224.29200969341505 182.62562424321112 C 0.0 **** -0.24
6022 H 126.44783379417035 224.10837091745478 181.68990786751652 H 0.0 **** 0.06
6023 H 126.30330579721573 224.1131054351048 183.46446699861838 H 0.0 **** 0.06
6024 H 127.32200045335165 225.32504565825624 182.6505051127466 H 0.0 **** 0.06
6025 H 127.83232793042399 223.62068055400366 182.6970056547756 H 0.0 **** 0.06
6026 C 133.17274417178857 0.45829820061950954 8.854927193358293 C 0.0 **** -0.24
6027 H 132.8002752271377 0.589903000233079 7.839120307561615 H 0.0 **** 0.06
6028 H 132.5212882687091 0.9846588714214874 9.552352613883869 H 0.0 **** 0.06
6029 H 134.18329906479528 0.8601722109355308 8.92576259122822 H 0.0 **** 0.06
6030 H 133.1861838388794 -0.6038123845395944 9.100514354814237 H 0.0 **** 0.06
6031 C 71.05595640207125 197.68947458979713 230.0712191546316 C 0.0 **** -0.24
6032 H 72.11974473713067 197.924870435668 230.03268673624504 H 0.0 **** 0.06
6033 H 70.65606372231909 197.6493178841591 229.05796753053735 H 0.0 **** 0.06
6034 H 70.53496567497868 198.46175467281572 230.63849485459946 H 0.0 **** 0.06
6035 H 70.91430446238158 196.72453155799704 230.55661819630782 H 0.0 **** 0.06
6036 C 16.928908489993717 110.8976673649623 208.92981369963996 C 0.0 **** -0.24
6037 H 17.536664465353113 110.81360265200757 209.8309137887268 H 0.0 **** 0.06
6038 H 16.218328210872812 111.71517555453053 209.04528049619933 H 0.0 **** 0.06
6039 H 16.387364258895047 109.96481171315324 208.76856928512774 H 0.0 **** 0.06
6040 H 17.57412255781543 111.09500175987162 208.07350737815256 H 0.0 **** 0.06
6041 C 84.22484498801674 216.48835974591518 224.08988509375038 C 0.0 **** -0.24
6042 H 85.24763059052708 216.31858860482126 223.75266714475453 H 0.0 **** 0.06
6043 H 83.59986194245718 215.6451582556866 223.79305176632013 H 0.0 **** 0.06
6044 H 83.84058121419295 217.40304922944324 223.63919000450807 H 0.0 **** 0.06
6045 H 84.21288048843357 216.58581566547053 225.17554653521586 H 0.0 **** 0.06
6046 C 20.454713519094497 169.5287368142839 23.507760581555573 C 0.0 **** -0.24
6047 H 20.3951159741533 169.0917692013137 22.510730987528717 H 0.0 **** 0.06
6048 H 19.605253671296992 170.19383085270624 23.663110044792802 H 0.0 **** 0.06
6049 H 21.381727417982773 170.09411948026346 23.601591485560533 H 0.0 **** 0.06
6050 H 20.435561811501856 168.73491069499053 24.254396953832128 H 0.0 **** 0.06
6051 C 209.2128542549626 61.06494482009404 144.52044031029956 C 0.0 **** -0.24
6052 H 208.61832453562016 60.50191074232458 143.80017742750508 H 0.0 **** 0.06
6053 H 210.20709208719012 61.24233299743568 144.10987954649326 H 0.0 **** 0.06
6054 H 209.29752839386947 60.49553159293049 145.44520212893917 H 0.0 **** 0.06
6055 H 208.72734579479246 62.01883522531105 144.7241857141628 H 0.0 **** 0.06
6056 C 155.6865583921828 112.9798500238397 104.65999015577765 C 0.0 **** -0.24
6057 H 156.3814607396603 112.18820529665942 104.93730749530667 H 0.0 **** 0.06
6058 H 156.22780473397182 113.92067823269801 104.55929135060805 H 0.0 **** 0.06
6059 H 154.92314849870624 113.07959583013192 105.43150598616285 H 0.0 **** 0.06
6060 H 155.21178551439755 112.7299066767776 103.71094241650991 H 0.0 **** 0.06
6061 C 162.49909204618663 109.50816890391471 214.5265462324267 C 0.0 **** -0.24
6062 H 162.72391682908773 110.27420779190172 213.78397245514148 H 0.0 **** 0.06
6063 H 162.5723470928532 108.52348708454304 214.0656113398462 H 0.0 **** 0.06
6064 H 161.4886170876558 109.65835393663315 214.9070924009492 H 0.0 **** 0.06
6065 H 163.21080750636742 109.57953436134233 215.34921849243415 H 0.0 **** 0.06
6066 C 46.32469460355935 154.50987159033892 105.28510331208179 C 0.0 **** -0.24
6067 H 46.24901153555781 154.53165061917394 106.37286906313497 H 0.0 **** 0.06
6068 H 46.811038682010775 155.42177954138526 104.93753187609371 H 0.0 **** 0.06
6069 H 45.32678478902663 154.44219583491508 104.85236140398356 H 0.0 **** 0.06
6070 H 46.912971370319795 153.64500361741372 104.98041430266898 H 0.0 **** 0.06
6071 C 41.1828012450387 15.203485409135155 149.06715663704227 C 0.0 **** -0.24
6072 H 40.324966605304425 15.733735666359465 149.48138721268853 H 0.0 **** 0.06
6073 H 42.102219269431544 15.652512763741441 149.44166764039727 H 0.0 **** 0.06
6074 H 41.16005941227708 15.272158313626605 147.97963817347468 H 0.0 **** 0.06
6075 H 41.140511795203594 14.155836082448175 149.36607981399348 H 0.0 **** 0.06
6076 C 52.05901539228756 14.25612165949076 19.481689687292018 C 0.0 **** -0.24
6077 H 52.42966607165778 13.711183100257443 18.61379764073618 H 0.0 **** 0.06
6078 H 52.88890217339342 14.766609073430956 19.970994404113583 H 0.0 **** 0.06
6079 H 51.599064853327235 13.557193988689491 20.17990038356963 H 0.0 **** 0.06
6080 H 51.31881987782556 14.989774701239043 19.161187907095254 H 0.0 **** 0.06
6081 C 23.146585382851228 86.78510997067693 27.736884772363652 C 0.0 **** -0.24
6082 H 22.081897242481546 86.83776460513641 27.96551816272344 H 0.0 **** 0.06
6083 H 23.685020440241246 87.51106839668867 28.346321089009876 H 0.0 **** 0.06
6084 H 23.3017960323985 87.00860602560451 26.68122964869795 H 0.0 **** 0.06
6085 H 23.515406919596344 85.78302413981916 27.954729272836488 H 0.0 **** 0.06
6086 C 121.05778282518426 139.30308806559 246.22958247969444 C 0.0 **** -0.24
6087 H 120.40665699066096 138.93475326499137 247.0223864857574 H 0.0 **** 0.06
6088 H 120.63905701532747 139.03426177706874 245.26057232650558 H 0.0 **** 0.06
6089 H 122.04642503696778 138.85774586867282 246.3357872972025 H 0.0 **** 0.06
6090 H 121.13839023824872 140.38841870662267 246.30195947185948 H 0.0 **** 0.06
6091 C 74.34486406717772 166.99111917919947 44.39907367484045 C 0.0 **** -0.24
6092 H 73.25782136423337 166.9756729755554 44.4901130406916 H 0.0 **** 0.06
6093 H 74.72746234219156 165.97088058167068 44.44899710889209 H 0.0 **** 0.06
6094 H 74.76796187158149 167.5782442261732 45.213286166899294 H 0.0 **** 0.06
6095 H 74.6224579477159 167.43822958249018 43.44480196881409 H 0.0 **** 0.06
6096 C 115.50106291197022 40.596109318220954 58.939161734354855 C 0.0 **** -0.24
6097 H 115.049502457589 41.19687041776312 59.72885017262911 H 0.0 **** 0.06
6098 H 116.48122830212813 41.002962524652816 58.690728958456475 H 0.0 **** 0.06
6099 H 114.86250332646358 40.619914042233376 58.05613367163764 H 0.0 **** 0.06
6100 H 115.60911841934782 39.56762184473678 59.282275541093924 H 0.0 **** 0.06
6101 C 140.14027279482735 47.497534149420005 49.07532193300979 C 0.0 **** -0.24
6102 H 139.68490487816567 46.521044759740846 49.23828847870128 H 0.0 **** 0.06
6103 H 141.0638121466998 47.37740603418246 48.50841728785335 H 0.0 **** 0.06
6104 H 140.3620702597082 47.9601525080887 50.03721574795398 H 0.0 **** 0.06
6105 H 139.45151899583064 48.130931223259324 48.517767537376955 H 0.0 **** 0.06
6106 C 67.95812335386023 34.42328679129176 175.12778851144822 C 0.0 **** -0.24
6107 H 66.89087321378327 34.25569058082223 175.26990891840524 H 0.0 **** 0.06
6108 H 68.43628335381632 34.56316280419475 176.09732669301846 H 0.0 **** 0.06
6109 H 68.10743052626023 35.313600364597306 174.51612709527538 H 0.0 **** 0.06
6110 H 68.39781733200167 33.560631884405424 174.62679720403742 H 0.0 **** 0.06
6111 C 23.610643526743004 212.9502907413995 8.732992912110348 C 0.0 **** -0.24
6112 H 24.23722231924556 213.55782863346735 9.386205204046405 H 0.0 **** 0.06
6113 H 24.074429435674887 212.87909150250465 7.749057004644854 H 0.0 **** 0.06
6114 H 22.627564450661097 213.41369923584216 8.639164958198407 H 0.0 **** 0.06
6115 H 23.50245525204444 211.95277380825073 9.15708467070489 H 0.0 **** 0.06
6116 C 170.64312818305686 137.80568840920134 196.9090211563681 C 0.0 **** -0.24
6117 H 171.31642798502804 137.14222457109992 197.45331491667827 H 0.0 **** 0.06
6118 H 170.0502925421871 138.38256981852572 197.61810740026976 H 0.0 **** 0.06
6119 H 169.98093300536004 137.2121490426557 196.27891312327262 H 0.0 **** 0.06
6120 H 171.2266752209614 138.48257289473966 196.28622038403114 H 0.0 **** 0.06
6121 C 23.16966418591116 122.08810357251537 153.6318132203838 C 0.0 **** -0.24
6122 H 22.840369114007558 121.71276055987573 152.66342748233177 H 0.0 **** 0.06
6123 H 22.990275199697322 121.32941981680011 154.3945262288101 H 0.0 **** 0.06
6124 H 22.611498565259154 122.99105755787372 153.8800506332328 H 0.0 **** 0.06
6125 H 24.23386204506076 122.31835170357391 153.59076111749243 H 0.0 **** 0.06
6126 C 203.70235291445607 168.98133750075885 232.89198814138786 C 0.0 **** -0.24
6127 H 204.1020891025707 168.4582478634089 233.7602581296358 H 0.0 **** 0.06
6128 H 204.243294582423 169.9175530828475 232.7508106857614 H 0.0 **** 0.06
6129 H 202.64474311707977 169.19409140800266 233.0509311181976 H 0.0 **** 0.06
6130 H 203.8184336308468 168.35696547231817 232.00599637600513 H 0.0 **** 0.06
6131 C 58.40168457767956 70.62878630035868 148.13891732798308 C 0.0 **** -0.24
6132 H 57.79444900566409 70.17410036941476 148.92129398172463 H 0.0 **** 0.06
6133 H 58.09945625313935 70.23296972509362 147.1688271995741 H 0.0 **** 0.06
6134 H 59.452261455537126 70.39744402850906 148.31431842543756 H 0.0 **** 0.06
6135 H 58.26082181820445 71.70977784531885 148.1507721114298 H 0.0 **** 0.06
6136 C 105.51493519081868 90.17522513126013 235.46079648134065 C 0.0 **** -0.24
6137 H 105.00586886977757 89.79490636919996 234.57510088438184 H 0.0 **** 0.06
6138 H 106.57642030300286 89.93306472419945 235.40193842956236 H 0.0 **** 0.06
6139 H 105.08626790175907 89.71621170964326 236.3516480979184 H 0.0 **** 0.06
6140 H 105.39113347011508 91.25730860183762 235.5136933123806 H 0.0 **** 0.06
6141 C 163.8464304743423 215.7246031125436 7.069516468986109 C 0.0 **** -0.24
6142 H 164.6565727070492 216.4499125578935 6.989633135461361 H 0.0 **** 0.06
6143 H 162.98508501478508 216.0785557078001 6.503649769260463 H 0.0 **** 0.06
6144 H 163.56940872885679 215.60388580565552 8.1168993290526 H 0.0 **** 0.06
6145 H 164.17671999269444 214.7666237814899 6.668530185486844 H 0.0 **** 0.06
6146 C 130.0207528642211 197.2628556642385 21.506770337907113 C 0.0 **** -0.24
6147 H 131.09144769179707 197.181794964248 21.320237995498104 H 0.0 **** 0.06
6148 H 129.62393239102215 196.28441544448137 21.778810453382306 H 0.0 **** 0.06
6149 H 129.52127509263403 197.6195594939462 20.605794807596368 H 0.0 **** 0.06
6150 H 129.84561157986067 197.9654320023945 22.32105627128496 H 0.0 **** 0.06
6151 C 213.91031977822445 60.1175610753657 177.3849750013361 C 0.0 **** -0.24
6152 H 213.0924793030562 60.16432260107882 176.66662837476645 H 0.0 **** 0.06
6153 H 214.15082219183586 59.07478952889528 177.59216974154916 H 0.0 **** 0.06
6154 H 213.61185963830624 60.61303479317863 178.30841742036193 H 0.0 **** 0.06
6155 H 214.78604435579928 60.616838842435186 176.97083765636975 H 0.0 **** 0.06
6156 C 101.26831845904127 145.10548634987714 24.547414889498413 C 0.0 **** -0.24
6157 H 101.97643928969666 144.79268048512276 25.31445657328962 H 0.0 **** 0.06
6158 H 101.26324594200995 146.19389732085872 24.479566468621726 H 0.0 **** 0.06
6159 H 100.27077366920858 144.75185909260387 24.80817478795622 H 0.0 **** 0.06
6160 H 101.5640543515706 144.6829229501467 23.587113881971746 H 0.0 **** 0.06
6161 C 141.12201296618625 134.78787772864635 25.170557751976247 C 0.0 **** -0.24
6162 H 141.15166680222987 134.94945349227504 26.24832372665618 H 0.0 **** 0.06
6163 H 140.1393306652276 135.06383321903513 24.78937456483459 H 0.0 **** 0.06
6164 H 141.31419917102875 133.73629544369592 24.955802688529346 H 0.0 **** 0.06
6165 H 141.88443040119668 135.40110366988563 24.690929602573732 H 0.0 **** 0.06
6166 C 57.44378234277886 55.68402027206125 188.12691661203726 C 0.0 **** -0.24
6167 H 57.89466132015906 55.61396639354419 189.11661412491702 H 0.0 **** 0.06
6168 H 56.41356737749595 55.32809848941267 188.1711025513742 H 0.0 **** 0.06
6169 H 58.010221860573296 55.07273519798693 187.4254927854362 H 0.0 **** 0.06
6170 H 57.45484217203739 56.72219529365546 187.7953463005053 H 0.0 **** 0.06
6171 C 226.50588190037507 142.40702242938016 2.0941218372945087 C 0.0 **** -0.24
6172 H 225.66798159860633 142.5845844324589 1.4205341437861279 H 0.0 **** 0.06
6173 H 227.21225705976946 143.23328840165092 2.0210791392575373 H 0.0 **** 0.06
6174 H 227.00286744459754 141.47647014490877 1.8167693526565927 H 0.0 **** 0.06
6175 H 226.13891281751293 142.33063498889675 3.1179021971986742 H 0.0 **** 0.06
6176 C 188.7166022859329 25.711191071904977 189.13269202482368 C 0.0 **** -0.24
6177 H 189.31067799912557 26.27286399724676 189.8541171064007 H 0.0 **** 0.06
6178 H 189.05302249925393 25.946064606855217 188.12287400584728 H 0.0 **** 0.06
6179 H 187.666516700146 25.982433720490604 189.23895232654138 H 0.0 **** 0.06
6180 H 188.83641147298383 24.643121744078485 189.31780348116695 H 0.0 **** 0.06
6181 C 110.1568011346071 123.02402765297825 108.16657423172737 C 0.0 **** -0.24
6182 H 110.64303051315486 123.90419871069065 107.74584929792994 H 0.0 **** 0.06
6183 H 110.75215823450918 122.64320066109684 108.9976351890339 H 0.0 **** 0.06
6184 H 110.07023818433848 122.25561067209946 107.39940557188726 H 0.0 **** 0.06
6185 H 109.16349701505644 123.29394672915004 108.52455912410633 H 0.0 **** 0.06
6186 C 46.886228808219414 142.09530335946607 219.14350175447578 C 0.0 **** -0.24
6187 H 46.586680115946194 143.13873118300967 219.2442516037054 H 0.0 **** 0.06
6188 H 46.402911856691475 141.6614118804552 218.26768528640804 H 0.0 **** 0.06
6189 H 46.5870837967571 141.54412197536843 220.03510251397452 H 0.0 **** 0.06
6190 H 47.96867651525926 142.03862365393573 219.0269172554846 H 0.0 **** 0.06
6191 C 74.95939433510748 37.052439757788505 143.9876883413628 C 0.0 **** -0.24
6192 H 74.26632903358797 37.68316492942441 144.54497356525275 H 0.0 **** 0.06
6193 H 74.41729116281218 36.52479578083363 143.20288482825998 H 0.0 **** 0.06
6194 H 75.41599840904931 36.3296123927627 144.66369047712465 H 0.0 **** 0.06
6195 H 75.73551437584604 37.6733463196701 143.54050013656246 H 0.0 **** 0.06
6196 C 127.06193525312983 213.49132538367078 237.15167238687818 C 0.0 **** -0.24
6197 H 126.39419304921154 214.22445071344978 236.7009971678927 H 0.0 **** 0.06
6198 H 127.98503144512682 213.9827344187816 237.4609815540098 H 0.0 **** 0.06
6199 H 127.29167439105242 212.7127294874204 236.423966448854 H 0.0 **** 0.06
6200 H 126.5782137905455 213.04478716799565 238.01987324405889 H 0.0 **** 0.06
6201 C 172.8438847991284 210.13889637894067 208.29229180132177 C 0.0 **** -0.24
6202 H 172.63126098384149 211.15146946335926 207.95173429478243 H 0.0 **** 0.06
6203 H 172.84489759319553 210.114853677365 209.38206815116126 H 0.0 **** 0.06
6204 H 173.8210458128898 209.8296411266161 207.9209818046986 H 0.0 **** 0.06
6205 H 172.0795922439422 209.46023224794345 207.91416952934753 H 0.0 **** 0.06
6206 C 81.38128477375128 153.25062590283255 205.4565740887443 C 0.0 **** -0.24
6207 H 81.0866712177801 153.6156578862869 206.44039727981888 H 0.0 **** 0.06
6208 H 81.25835101068404 152.16776750196433 205.41935108316784 H 0.0 **** 0.06
6209 H 82.42533876202069 153.50544671724631 205.27275026627345 H 0.0 **** 0.06
6210 H 80.75439486068277 153.7147851426017 204.69452040534276 H 0.0 **** 0.06
6211 C 16.18226804774727 191.23975784439912 154.10827728780174 C 0.0 **** -0.24
6212 H 15.870974178421164 191.82927394676517 154.97119760300603 H 0.0 **** 0.06
6213 H 15.302724880497536 190.82460885488675 153.61601140015497 H 0.0 **** 0.06
6214 H 16.830798556873262 190.42783754648218 154.43921261307852 H 0.0 **** 0.06
6215 H 16.724021076081755 191.87620854132746 153.4097662141899 H 0.0 **** 0.06
6216 C 246.93506665615712 203.57636015607042 207.2023239451724 C 0.0 **** -0.24
6217 H 246.30568853631382 202.713551254894 207.41795683030756 H 0.0 **** 0.06
6218 H 247.34331720779105 203.48511730933254 206.19544122811038 H 0.0 **** 0.06
6219 H 247.75100261204005 203.620754837963 207.92297239412989 H 0.0 **** 0.06
6220 H 246.338867364139 204.48625332682138 207.2715076968035 H 0.0 **** 0.06
6221 C 8.133579961405104 198.28056765399276 151.46017345519843 C 0.0 **** -0.24
6222 H 8.258420918204564 198.36507867307012 152.53917724631737 H 0.0 **** 0.06
6223 H 7.785923166544677 199.23219965080727 151.0591624121383 H 0.0 **** 0.06
6224 H 7.400877689875102 197.5039014794739 151.23978151138752 H 0.0 **** 0.06
6225 H 9.08792718088742 198.01919819929108 151.00278962981872 H 0.0 **** 0.06
6226 C 60.58219629968491 116.08067043896463 32.20117646052458 C 0.0 **** -0.24
6227 H 59.723403032912444 115.78848238967606 31.597450669406214 H 0.0 **** 0.06
6228 H 60.43053050237302 115.75525783913065 33.230143753801 H 0.0 **** 0.06
6229 H 60.69265324040802 117.16460881260551 32.17520662266011 H 0.0 **** 0.06
6230 H 61.4827452759078 115.6137453654348 31.800740325294754 H 0.0 **** 0.06
6231 C 105.06830021660849 67.83861205914363 124.96606061124919 C 0.0 **** -0.24
6232 H 105.30709986142605 66.9763626392828 124.34373976673055 H 0.0 **** 0.06
6233 H 105.83847570135461 67.9616376988127 125.72686543133071 H 0.0 **** 0.06
6234 H 104.10252488685902 67.68263330202709 125.44795294384275 H 0.0 **** 0.06
6235 H 105.024167598681 68.73346402849407 124.34468082317298 H 0.0 **** 0.06
6236 C 64.71729143736516 133.21381135832573 18.76255310535393 C 0.0 **** -0.24
6237 H 65.56614256546075 133.50892393321226 19.378869496114277 H 0.0 **** 0.06
6238 H 65.04792699574028 132.49908373907326 18.008034623125525 H 0.0 **** 0.06
6239 H 64.30065991336107 134.09421367893225 18.272476066961275 H 0.0 **** 0.06
6240 H 63.95443627489851 132.7530240820852 19.390832235214617 H 0.0 **** 0.06
6241 C 131.16367002067682 31.41339845975766 161.12219867989927 C 0.0 **** -0.24
6242 H 132.04808143251748 31.050859666185815 160.59941704739308 H 0.0 **** 0.06
6243 H 131.22607774752666 31.138645141342636 162.174918706233 H 0.0 **** 0.06
6244 H 130.2723697027985 30.96584556705696 160.68088050208777 H 0.0 **** 0.06
6245 H 131.1077948725768 32.498585406783064 161.03139760281738 H 0.0 **** 0.06
6246 C 167.1591945081038 58.00764393780645 178.2283271968576 C 0.0 **** -0.24
6247 H 168.05383943843904 57.52488800690878 178.62223420842332 H 0.0 **** 0.06
6248 H 167.0079657776241 57.70369667426132 177.19267112530946 H 0.0 **** 0.06
6249 H 167.27895740222795 59.090114081311526 178.27632521192157 H 0.0 **** 0.06
6250 H 166.2956032963946 57.71139149641516 178.82422172139184 H 0.0 **** 0.06
6251 C 127.6034839327215 167.9597237343484 99.95009327193841 C 0.0 **** -0.24
6252 H 126.94929185888034 168.17272950339367 100.7960269869007 H 0.0 **** 0.06
6253 H 127.71932968222498 168.85904330427465 99.34572117109207 H 0.0 **** 0.06
6254 H 127.16486528638512 167.16707800323587 99.34384414975332 H 0.0 **** 0.06
6255 H 128.57829046886056 167.6389695803213 100.31682690030371 H 0.0 **** 0.06
6256 C 19.393614707690162 195.44539264413953 201.65328037638628 C 0.0 **** -0.24
6257 H 20.249199688291625 195.88955486239593 202.16069423209487 H 0.0 **** 0.06
6258 H 18.48469485725157 195.9729546691567 201.94218102110685 H 0.0 **** 0.06
6259 H 19.30940588873281 194.39584114542106 201.9327210357399 H 0.0 **** 0.06
6260 H 19.531118799216486 195.52426421513198 200.57407442485643 H 0.0 **** 0.06
6261 C 229.1583658449879 170.75221067137912 44.064152254614015 C 0.0 **** -0.24
6262 H 229.96335681497777 170.13281035016007 44.459114714953614 H 0.0 **** 0.06
6263 H 228.98075563638042 171.5906462839846 44.7377581541904 H 0.0 **** 0.06
6264 H 228.24964378807417 170.15471198643922 43.97932223589973 H 0.0 **** 0.06
6265 H 229.43894949417444 171.12834627908018 43.08050018893857 H 0.0 **** 0.06
6266 C 108.44853271766294 113.46855379217024 1.3148345037878073 C 0.0 **** -0.24
6267 H 108.1989188993407 112.84438156767808 2.1731902286939544 H 0.0 **** 0.06
6268 H 108.04718828118357 114.47105100184984 1.4663718460138 H 0.0 **** 0.06
6269 H 108.01568104044802 113.03477598006151 0.41335083492660374 H 0.0 **** 0.06
6270 H 109.53214789152156 113.52274174032999 1.2082587357048453 H 0.0 **** 0.06
6271 C 26.645820139741843 207.80553264323714 201.7614879789505 C 0.0 **** -0.24
6272 H 27.31599190588304 208.57886349177568 201.3867070202119 H 0.0 **** 0.06
6273 H 26.120746162145608 207.34282891121188 200.9253329982492 H 0.0 **** 0.06
6274 H 25.92273032128719 208.25047705922734 202.4440325830152 H 0.0 **** 0.06
6275 H 27.225269087449277 207.04827359481584 202.28970689261996 H 0.0 **** 0.06
6276 C 242.13625349351773 153.9737544475009 240.31761036213524 C 0.0 **** -0.24
6277 H 241.33053111583578 153.26842396904854 240.52120047873103 H 0.0 **** 0.06
6278 H 242.15646942384987 154.7356982484347 241.096384734558 H 0.0 **** 0.06
6279 H 241.96743261617323 154.44784519119824 239.3502846384382 H 0.0 **** 0.06
6280 H 243.0876929885421 153.44405696278898 240.30176702803334 H 0.0 **** 0.06
6281 C 210.9881326712494 7.731263367333028 202.75440763388616 C 0.0 **** -0.24
6282 H 210.92870092959953 8.682353629941076 202.2253143066315 H 0.0 **** 0.06
6283 H 210.35374206714476 7.768557985767458 203.64090594616778 H 0.0 **** 0.06
6284 H 212.01962209346706 7.54556182860793 203.0531199961202 H 0.0 **** 0.06
6285 H 210.6483918593937 6.929389964738448 202.09849925517506 H 0.0 **** 0.06
6286 C 5.915483987534429 248.50442672559177 46.194003536317766 C 0.0 **** -0.24
6287 H 6.045532549711908 249.52332823286872 45.828259546354616 H 0.0 **** 0.06
6288 H 4.871619273873392 248.20947799472555 46.08522266264046 H 0.0 **** 0.06
6289 H 6.2000301038656005 248.45754399829113 47.245035925921485 H 0.0 **** 0.06
6290 H 6.546239076487154 247.82854033948234 45.6159488789651 H 0.0 **** 0.06
6291 C 105.04908015122649 97.45817846601673 152.57009994009246 C 0.0 **** -0.24
6292 H 105.11256031146414 96.86389607160598 153.48154454748672 H 0.0 **** 0.06
6293 H 105.28112818317052 96.82878213566951 151.70998683380373 H 0.0 **** 0.06
6294 H 105.7632922807648 98.27934895384223 152.62280311064407 H 0.0 **** 0.06
6295 H 104.04123119211323 97.85913061859131 152.46610278357014 H 0.0 **** 0.06
6296 C 57.992709223241576 139.75742965797602 118.43274777463671 C 0.0 **** -0.24
6297 H 57.72224125433107 138.7684425654878 118.06331960290694 H 0.0 **** 0.06
6298 H 57.31764919690045 140.03985850668133 119.24026462893909 H 0.0 **** 0.06
6299 H 57.9131360977739 140.48170455982776 117.62210386218908 H 0.0 **** 0.06
6300 H 59.01793633109554 139.73926191979226 118.80396858574434 H 0.0 **** 0.06
6301 C 182.063489783062 98.29134836400331 244.83574737701502 C 0.0 **** -0.24
6302 H 181.21972097557762 97.67926256431204 245.15150951033604 H 0.0 **** 0.06
6303 H 182.23927537150237 98.14629009553303 243.76985146537749 H 0.0 **** 0.06
6304 H 182.95370867583114 98.00032316260805 245.39478426291095 H 0.0 **** 0.06
6305 H 181.84197360196913 99.34175466790768 245.02753569268185 H 0.0 **** 0.06
6306 C 147.1610245262611 170.44812176511323 18.438936890168662 C 0.0 **** -0.24
6307 H 146.12226699112148 170.22435043543425 18.684848985203942 H 0.0 **** 0.06
6308 H 147.57584577135634 169.63428145846868 17.844434698036707 H 0.0 **** 0.06
6309 H 147.73567652874704 170.55800066619324 19.357720464363837 H 0.0 **** 0.06
6310 H 147.2073774345878 171.3759978185059 17.86812167088479 H 0.0 **** 0.06
6311 C 243.7709794163227 234.8900686961003 145.43202542700652 C 0.0 **** -0.24
6312 H 244.51805446148578 234.10244576663234 145.33376777006066 H 0.0 **** 0.06
6313 H 242.86837995113046 234.60182628561552 144.89378377016334 H 0.0 **** 0.06
6314 H 244.16399669708693 235.81677745503725 145.0142277974042 H 0.0 **** 0.06
6315 H 243.5358657801497 235.03720383112403 146.48581923626088 H 0.0 **** 0.06
6316 C 10.113214809622121 214.50364071917454 107.8741368323254 C 0.0 **** -0.24
6317 H 11.137060369102457 214.40623600485395 108.23533644761537 H 0.0 **** 0.06
6318 H 9.460489832173721 213.84594417813838 108.44894631529957 H 0.0 **** 0.06
6319 H 10.072140607878438 214.2253643699956 106.82014168467686 H 0.0 **** 0.06
6320 H 9.783733532672997 215.53606477922904 107.99018085703804 H 0.0 **** 0.06
6321 C 194.80579385588936 158.68521714315935 202.34314768753222 C 0.0 **** -0.24
6322 H 194.80058285215674 158.9569918322301 201.28761894222816 H 0.0 **** 0.06
6323 H 195.74067629802278 159.01384344518945 202.79787854052114 H 0.0 **** 0.06
6324 H 194.71524281046942 157.60284746623987 202.43921520539735 H 0.0 **** 0.06
6325 H 193.96668732479324 159.16672257882894 202.84569053921996 H 0.0 **** 0.06
6326 C 22.990994269978756 112.58566653163385 210.44125635081642 C 0.0 **** -0.24
6327 H 23.6413416091776 112.82315991149207 209.59907952438425 H 0.0 **** 0.06
6328 H 23.19744179812929 113.2711021494506 211.26417008619305 H 0.0 **** 0.06
6329 H 23.177265583758555 111.56164384077798 210.76575149767376 H 0.0 **** 0.06
6330 H 21.950068355840955 112.68614839844358 210.1362363666661 H 0.0 **** 0.06
6331 C 96.09185571030562 10.861420076544647 181.95028742357613 C 0.0 **** -0.24
6332 H 95.75526237499491 11.7581788882475 182.46955529245656 H 0.0 **** 0.06
6333 H 95.25258949720978 10.17772370421099 181.82507936848776 H 0.0 **** 0.06
6334 H 96.8727748987715 10.375126388360968 182.53483446025143 H 0.0 **** 0.06
6335 H 96.48732527819612 11.135297913533435 180.97223000228183 H 0.0 **** 0.06
6336 C 63.30882437320585 127.69548851667108 21.58875722576775 C 0.0 **** -0.24
6337 H 63.952557721959664 128.57537075914857 21.611300379463074 H 0.0 **** 0.06
6338 H 63.90181026752734 126.80768302141806 21.80818762384385 H 0.0 **** 0.06
6339 H 62.86111603897237 127.59852990010526 20.59919274948635 H 0.0 **** 0.06
6340 H 62.52252222651586 127.80247301554178 22.33485092184074 H 0.0 **** 0.06
6341 C 189.06846531574138 211.37972777923034 1.4618385687607542 C 0.0 **** -0.24
6342 H 188.561875573576 210.42560286587462 1.6072966462916014 H 0.0 **** 0.06
6343 H 188.58075728669664 212.1450638864747 2.0667105417502114 H 0.0 **** 0.06
6344 H 189.01808686095842 211.66090521988846 0.41032831244845624 H 0.0 **** 0.06
6345 H 190.11141511109147 211.2869241261918 1.764706155751881 H 0.0 **** 0.06
6346 C 5.659592019464213 226.29652579301694 152.46143087867472 C 0.0 **** -0.24
6347 H 6.473858185601074 226.97236505384961 152.19846798892326 H 0.0 **** 0.06
6348 H 6.022275704860675 225.26863022002334 152.44711981736575 H 0.0 **** 0.06
6349 H 4.8491595643082235 226.4071601767522 151.7413337791555 H 0.0 **** 0.06
6350 H 5.294870740746546 226.5400011920423 153.45954845303092 H 0.0 **** 0.06
6351 C 135.12310497831578 54.09069217215807 66.35639801491976 C 0.0 **** -0.24
6352 H 135.79078848345932 54.135660090718545 65.4960090376452 H 0.0 **** 0.06
6353 H 134.82469227848082 55.10100843993223 66.6379676832569 H 0.0 **** 0.06
6354 H 135.63881797688404 53.616593538546056 67.1916477742061 H 0.0 **** 0.06
6355 H 134.23832018470048 53.50908813160973 66.09802197936193 H 0.0 **** 0.06
6356 C 95.79184193736594 93.79871009014181 75.58630874554413 C 0.0 **** -0.24
6357 H 96.61225275724755 93.1554438309852 75.9050440259295 H 0.0 **** 0.06
6358 H 95.2156670141973 93.29480918841969 74.81040417251575 H 0.0 **** 0.06
6359 H 96.19461452847219 94.73257839342844 75.19277880802318 H 0.0 **** 0.06
6360 H 95.14632346928781 94.01191149953226 76.43894972838143 H 0.0 **** 0.06
6361 C 123.60130284119057 199.5784639604274 169.28137455927782 C 0.0 **** -0.24
6362 H 122.89753861390076 198.83397754069279 168.90823456029045 H 0.0 **** 0.06
6363 H 123.1909328570602 200.04789843778298 170.17548658675568 H 0.0 **** 0.06
6364 H 123.76737781063142 200.33636969738478 168.5162212666468 H 0.0 **** 0.06
6365 H 124.5465774463255 199.09452248649205 169.52530514653753 H 0.0 **** 0.06
6366 C 10.250010521558252 115.61608522659967 53.40512783266885 C 0.0 **** -0.24
6367 H 9.419318892457298 115.07244977978874 52.9537349888507 H 0.0 **** 0.06
6368 H 10.291733469960505 115.39314404238789 54.471276036784474 H 0.0 **** 0.06
6369 H 10.104714123842598 116.68665616871877 53.261585569992036 H 0.0 **** 0.06
6370 H 11.183973541925369 115.30940843025382 52.932605872389075 H 0.0 **** 0.06
6371 C 180.09614527435144 237.49003278687792 220.40480961127915 C 0.0 **** -0.24
6372 H 180.82927231699296 236.72315933095706 220.65310258823743 H 0.0 **** 0.06
6373 H 179.57154971441577 237.20939469514917 219.49116890793147 H 0.0 **** 0.06
6374 H 180.6042047441508 238.44321229169458 220.254713020616 H 0.0 **** 0.06
6375 H 179.37964729559644 237.58531201786502 221.22056084887527 H 0.0 **** 0.06
6376 C 8.938640225283876 55.26814444055307 19.821800740400647 C 0.0 **** -0.24
6377 H 8.655319605530124 54.45409868869871 19.153914134579935 H 0.0 **** 0.06
6378 H 9.76116567845375 55.82940469794025 19.378544188518873 H 0.0 **** 0.06
6379 H 9.252463713999845 54.85829139594125 20.780781370752266 H 0.0 **** 0.06
6380 H 8.085116864427917 55.930016669443745 19.97062143858051 H 0.0 **** 0.06
6381 C 1.407411078832837 230.56542914453314 59.36270549290549 C 0.0 **** -0.24
6382 H 2.0181063369592778 230.2683124773979 60.21522737301612 H 0.0 **** 0.06
6383 H 1.4804627913594999 231.6440909296764 59.22231755167522 H 0.0 **** 0.06
6384 H 0.3680762018634596 230.29356684828025 59.54762297874015 H 0.0 **** 0.06
6385 H 1.7625538825288913 230.056838497665 58.46643448932605 H 0.0 **** 0.06
6386 C 134.37721077646356 59.074713799987535 96.60348234352418 C 0.0 **** -0.24
6387 H 134.88976962813973 58.13010770863684 96.7828571348114 H 0.0 **** 0.06
6388 H 134.5966704016487 59.42071060863367 95.59296056770222 H 0.0 **** 0.06
6389 H 134.720815459401 59.81663718430491 97.32446367817914 H 0.0 **** 0.06
6390 H 133.3020754163167 58.93164759568509 96.71448501679711 H 0.0 **** 0.06
6391 C 190.38017205713544 10.478779691530235 200.47030500024135 C 0.0 **** -0.24
6392 H 190.03413974153574 11.261919556204973 199.79630340499403 H 0.0 **** 0.06
6393 H 190.39698772309976 9.52491708074578 199.9406938723961 H 0.0 **** 0.06
6394 H 189.70520391349106 10.408793449992999 201.32339145624644 H 0.0 **** 0.06
6395 H 191.38422015717282 10.717816857667302 200.82039957645645 H 0.0 **** 0.06
6396 C 119.85777863495721 184.19440232426962 134.85640007141754 C 0.0 **** -0.24
6397 H 120.33360032687068 183.65351984355306 134.0386999896909 H 0.0 **** 0.06
6398 H 119.46630826492046 183.483015902004 135.5832328388499 H 0.0 **** 0.06
6399 H 119.04051411660132 184.79978964728718 134.46428597340224 H 0.0 **** 0.06
6400 H 120.58999621934834 184.84181664048668 135.33889948201966 H 0.0 **** 0.06
6401 C 231.9733353879367 58.13948469766157 145.68813586588917 C 0.0 **** -0.24
6402 H 232.28735122535994 58.108935899455616 144.64458117247696 H 0.0 **** 0.06
6403 H 230.88445399278095 58.12149189828136 145.74023328742393 H 0.0 **** 0.06
6404 H 232.34562717047044 59.052363489565465 146.15359017493958 H 0.0 **** 0.06
6405 H 232.3768462703801 57.27382959196373 146.21351837016115 H 0.0 **** 0.06
6406 C 197.05099372812626 23.9002404197025 247.9459325636614 C 0.0 **** -0.24
6407 H 196.39540567822533 24.59486701584214 248.47127509154967 H 0.0 **** 0.06
6408 H 196.94891991405586 24.0488606349858 246.87061933302135 H 0.0 **** 0.06
6409 H 196.77517175867692 22.877696773686324 248.20012399650602 H 0.0 **** 0.06
6410 H 198.0843635933115 24.082615092135455 248.24099487970085 H 0.0 **** 0.06
6411 C 239.3306185957548 20.30291022333651 12.506328146047878 C 0.0 **** -0.24
6412 H 238.35002970752387 20.549903531376714 12.098820707860028 H 0.0 **** 0.06
6413 H 239.7146058500535 19.409886881951962 12.013071954341939 H 0.0 **** 0.06
6414 H 239.24197234522006 20.116868643003244 13.577246888867677 H 0.0 **** 0.06
6415 H 240.01353743911878 21.135147058097886 12.338056741478084 H 0.0 **** 0.06
6416 C 130.49190743571683 13.301884749897852 162.98978696273997 C 0.0 **** -0.24
6417 H 131.4963308555722 12.981909530244991 163.2674396663735 H 0.0 **** 0.06
6418 H 129.75820045307742 12.713407727187388 163.54105679737597 H 0.0 **** 0.06
6419 H 130.34619456984746 13.15497831692727 161.9197384465733 H 0.0 **** 0.06
6420 H 130.36792841085835 14.35791735357121 163.23161731593615 H 0.0 **** 0.06
6421 C 79.6967661633413 74.92422276000113 123.89457906248393 C 0.0 **** -0.24
6422 H 78.92073025535396 75.64588659496607 123.63906555997349 H 0.0 **** 0.06
6423 H 79.3048717490814 74.21005965650141 124.61869465910803 H 0.0 **** 0.06
6424 H 80.55096241262356 75.44686760453604 124.32620704242967 H 0.0 **** 0.06
6425 H 80.0117089799588 74.39552595381917 122.99501234635721 H 0.0 **** 0.06
6426 C 78.76302271638522 207.2527360474441 48.24534816374583 C 0.0 **** -0.24
6427 H 79.69189123193087 207.21116053045682 47.677028429332466 H 0.0 **** 0.06
6428 H 77.92615856297351 207.40918578929669 47.56309421003917 H 0.0 **** 0.06
6429 H 78.81046320470048 208.07647007019537 48.957258427778214 H 0.0 **** 0.06
6430 H 78.62350608460324 206.31474705723747 48.782742183573674 H 0.0 **** 0.06
6431 C 241.97650384737346 215.23268175113358 15.323841469790494 C 0.0 **** -0.24
6432 H 242.08885645309937 214.81465390170064 16.323429966621546 H 0.0 **** 0.06
6433 H 241.80894477395424 216.30789085656974 15.397018783333678 H 0.0 **** 0.06
6434 H 241.12645704195393 214.76478289226648 14.827829725968712 H 0.0 **** 0.06
6435 H 242.8821331008461 215.0457882356681 14.74669760642307 H 0.0 **** 0.06
6436 C 153.1760793423383 188.15835748212174 211.87617847328602 C 0.0 **** -0.24
6437 H 153.83016738767915 189.0239239330071 211.7802092124556 H 0.0 **** 0.06
6438 H 153.27531689144666 187.52813537700342 210.99209161028554 H 0.0 **** 0.06
6439 H 152.14244061752154 188.49246641656558 211.9697668395235 H 0.0 **** 0.06
6440 H 153.45505913692372 187.58838373453517 212.76167085473907 H 0.0 **** 0.06
6441 C 243.0587949129711 151.17036122013803 191.3803204303638 C 0.0 **** -0.24
6442 H 243.05837709431134 151.3774830908344 192.45062782948662 H 0.0 **** 0.06
6443 H 244.08752740355385 151.13510837599458 191.0189780880927 H 0.0 **** 0.06
6444 H 242.51574545549204 151.957955838057 190.85754554812925 H 0.0 **** 0.06
6445 H 242.5756146594302 150.21099548844103 191.19650585009285 H 0.0 **** 0.06
6446 C 231.7148765376731 76.78577008705679 66.95594334778798 C 0.0 **** -0.24
6447 H 232.15752047755896 76.04435745650312 67.62068556625087 H 0.0 **** 0.06
6448 H 232.42133520873185 77.02999164454667 66.16215209493572 H 0.0 **** 0.06
6449 H 231.47928155248673 77.68740231662156 67.52307200504251 H 0.0 **** 0.06
6450 H 230.80198242790848 76.38352301217097 66.51876353735747 H 0.0 **** 0.06
6451 C 148.86358311802888 58.35467494951524 0.001620497067051474 C 0.0 **** -0.24
6452 H 148.59675375586764 57.81639640510207 0.9108195204514686 H 0.0 **** 0.06
6453 H 148.16994103230567 58.08752086704223 -0.7952294989352993 H 0.0 **** 0.06
6454 H 149.8780073465026 58.08823447714127 -0.2937987318200186 H 0.0 **** 0.06
6455 H 148.80888717811035 59.428451965407135 0.18604083711883845 H 0.0 **** 0.06
6456 C 155.6915372834847 90.78250173468388 111.14849183816884 C 0.0 **** -0.24
6457 H 154.83578160472257 91.32708793641638 110.75019339395658 H 0.0 **** 0.06
6458 H 156.54145013465373 90.8998425016294 110.47598171803051 H 0.0 **** 0.06
6459 H 155.43914389733254 89.72558071169342 111.23690622444224 H 0.0 **** 0.06
6460 H 155.94753939298312 91.17794547102076 112.13178413801722 H 0.0 **** 0.06
6461 C 203.30333947907718 179.81170442100571 155.0253871565172 C 0.0 **** -0.24
6462 H 203.85021412854599 178.90257966156585 155.2755188398648 H 0.0 **** 0.06
6463 H 202.49073200242577 179.95385712194945 155.73756849861581 H 0.0 **** 0.06
6464 H 202.8933387814233 179.72463704724242 154.01974494447404 H 0.0 **** 0.06
6465 H 203.97963887522698 180.66560035287753 155.06952825877062 H 0.0 **** 0.06
6466 C 94.1245882166962 238.99336335012453 26.74282273380534 C 0.0 **** -0.24
6467 H 95.03379175601773 239.35008672490835 27.226419594599406 H 0.0 **** 0.06
6468 H 93.82422484628509 239.70028636317846 25.968565488869913 H 0.0 **** 0.06
6469 H 93.33050349740077 238.90551876052496 27.483172880147677 H 0.0 **** 0.06
6470 H 94.31183010478921 238.0186713298716 26.292250308968335 H 0.0 **** 0.06
6471 C 135.33433311562655 94.7671258331585 160.74289043051027 C 0.0 **** -0.24
6472 H 135.90536027094456 95.69184568915693 160.65449499209947 H 0.0 **** 0.06
6473 H 134.2776834183841 94.97509997930669 160.57164864099175 H 0.0 **** 0.06
6474 H 135.46628716202088 94.35381368188823 161.7423451593584 H 0.0 **** 0.06
6475 H 135.68888705440366 94.04996966683117 160.00256070213348 H 0.0 **** 0.06
6476 C 149.87658601940979 166.71022589941987 231.9522868706527 C 0.0 **** -0.24
6477 H 150.8538490521281 166.85828083733864 232.4120109958724 H 0.0 **** 0.06
6478 H 149.7812159368915 165.67433101135128 231.6266875799216 H 0.0 **** 0.06
6479 H 149.77690071031387 167.37307792120774 231.092398150286 H 0.0 **** 0.06
6480 H 149.0950081496197 166.93678547808037 232.67841590395838 H 0.0 **** 0.06
6481 C 207.68843199136455 14.949995388759959 102.33426786296886 C 0.0 **** -0.24
6482 H 208.11452497258125 14.35847691927583 101.52356122895407 H 0.0 **** 0.06
6483 H 207.37849967792187 14.287611083975577 103.14233380074103 H 0.0 **** 0.06
6484 H 206.82557770779482 15.503482118306323 101.9652170744883 H 0.0 **** 0.06
6485 H 208.43800090042618 15.650136396207273 102.70514871166392 H 0.0 **** 0.06
6486 C 75.21005706484155 171.5004946918901 237.10233261811095 C 0.0 **** -0.24
6487 H 74.30405766525425 170.91926864061267 237.27354573983823 H 0.0 **** 0.06
6488 H 74.94013546143398 172.50020681421893 236.75829396579263 H 0.0 **** 0.06
6489 H 75.82129113398227 171.00824016187488 236.34657673849043 H 0.0 **** 0.06
6490 H 75.77340962329012 171.5772751991955 238.03268804731633 H 0.0 **** 0.06
6491 C 167.40349871738383 139.10562548758887 66.09239084191384 C 0.0 **** -0.24
6492 H 167.7770927520601 140.1183300956226 65.94180385569223 H 0.0 **** 0.06
6493 H 166.63755288888032 139.11338035721954 66.86922057824529 H 0.0 **** 0.06
6494 H 168.2243151917738 138.45680749658507 66.39833381200827 H 0.0 **** 0.06
6495 H 166.97379884983621 138.73520590585161 65.16161271190487 H 0.0 **** 0.06
6496 C 221.74777772456198 127.10689955941433 76.82659485785013 C 0.0 **** -0.24
6497 H 222.77902345854753 127.45175281132555 76.76309664143852 H 0.0 **** 0.06
6498 H 221.0789150667168 127.89290152625438 76.47605638401242 H 0.0 **** 0.06
6499 H 221.50942596700807 126.86238539011873 77.86157061917723 H 0.0 **** 0.06
6500 H 221.62295911544842 126.21969588550982 76.20645332809465 H 0.0 **** 0.06
6501 C 39.71662826904421 145.80532944065996 197.59672628332555 C 0.0 **** -0.24
6502 H 39.26361931003615 144.9710033225002 198.1316060585643 H 0.0 **** 0.06
6503 H 40.79156619876969 145.8130382172651 197.77826855115285 H 0.0 **** 0.06
6504 H 39.28252617242421 146.74103749077688 197.94993215813614 H 0.0 **** 0.06
6505 H 39.52775473488734 145.69766139027809 196.52879559991936 H 0.0 **** 0.06
6506 C 21.964756607449175 121.90891329136784 190.86083328728196 C 0.0 **** -0.24
6507 H 22.02652161664119 120.91495070332962 190.4169774177538 H 0.0 **** 0.06
6508 H 22.96978240638049 122.31688529500161 190.9761440563276 H 0.0 **** 0.06
6509 H 21.484862664311578 121.84213171847361 191.83638778497303 H 0.0 **** 0.06
6510 H 21.38026029003595 122.56024886898695 190.21133918757582 H 0.0 **** 0.06
6511 C 167.16540790898387 152.00176739199543 58.31663640598532 C 0.0 **** -0.24
6512 H 166.37949978221292 151.26010868119084 58.46383475659451 H 0.0 **** 0.06
6513 H 166.94771526251935 152.88487926851084 58.91691041795531 H 0.0 **** 0.06
6514 H 167.21048898082307 152.27869665420033 57.26377628169661 H 0.0 **** 0.06
6515 H 168.1227836636445 151.58058255046808 58.623379885559245 H 0.0 **** 0.06
6516 C 130.6407783123618 117.78954142966083 144.54905423334972 C 0.0 **** -0.24
6517 H 131.17446473800254 117.21983383443131 143.78886306262083 H 0.0 **** 0.06
6518 H 129.86559652559063 117.16328000235498 144.99352629786867 H 0.0 **** 0.06
6519 H 130.18238718498228 118.66551149095551 144.0919770208413 H 0.0 **** 0.06
6520 H 131.33978480602778 118.10690867141162 145.32299061752175 H 0.0 **** 0.06
6521 C 8.489025724508366 74.52015936847312 170.95610564652532 C 0.0 **** -0.24
6522 H 9.294283067373243 73.78630529360913 170.96523622775 H 0.0 **** 0.06
6523 H 7.859509879221918 74.35615576811082 170.081430169541 H 0.0 **** 0.06
6524 H 8.912993040544592 75.52358163513682 170.9153497839151 H 0.0 **** 0.06
6525 H 7.890608580959082 74.4144559960971 171.86032977620468 H 0.0 **** 0.06
6526 C 175.18170171796345 36.29477108024025 213.45432860251182 C 0.0 **** -0.24
6527 H 175.4958851785015 35.251002424756024 213.4220125573292 H 0.0 **** 0.06
6528 H 175.51169086147894 36.7437367736069 214.39156152332404 H 0.0 **** 0.06
6529 H 174.09507017371703 36.34822409242922 213.38797175757932 H 0.0 **** 0.06
6530 H 175.62532122221722 36.83297003437556 212.61661970836184 H 0.0 **** 0.06
6531 C 68.86781632807052 50.98208912550366 7.258718476758048 C 0.0 **** -0.24
6532 H 69.2313021646903 51.771066997494984 6.600118798910813 H 0.0 **** 0.06
6533 H 69.6410247579499 50.22163409242977 7.375004550340947 H 0.0 **** 0.06
6534 H 67.97577897760831 50.530090753175685 6.82455213761628 H 0.0 **** 0.06
6535 H 68.6244757594151 51.405970958993464 8.23218142547907 H 0.0 **** 0.06
6536 C 21.946649894665228 193.65576898164738 138.50519248587946 C 0.0 **** -0.24
6537 H 21.51750130451441 193.49769625280362 137.51449117177228 H 0.0 **** 0.06
6538 H 21.147899059870753 193.8582937744158 139.2184781076983 H 0.0 **** 0.06
6539 H 22.63066836717448 194.50395072111849 138.47288091773802 H 0.0 **** 0.06
6540 H 22.489805893470617 192.76221444822073 138.8113663205301 H 0.0 **** 0.06
6541 C 139.01544515318867 161.17689325739187 241.1712605277039 C 0.0 **** -0.24
6542 H 139.6241237646593 161.83691348781036 241.78979526259178 H 0.0 **** 0.06
6543 H 138.23878275299637 160.7198474656076 241.7842615285885 H 0.0 **** 0.06
6544 H 139.64629607553607 160.39741547495552 240.74270705337113 H 0.0 **** 0.06
6545 H 138.55409987776937 161.75382269847626 240.369860175678 H 0.0 **** 0.06
6546 C 169.9149418069871 135.75536687617418 192.28678296146705 C 0.0 **** -0.24
6547 H 170.9078293669441 135.56314124750256 191.87979626259818 H 0.0 **** 0.06
6548 H 169.99385158006532 135.9592171995846 193.354636351364 H 0.0 **** 0.06
6549 H 169.28267333904813 134.88129457025593 192.12850862847733 H 0.0 **** 0.06
6550 H 169.47691495590578 136.6172637227901 191.78262834193254 H 0.0 **** 0.06
6551 C 208.14194129959282 52.94781543244612 139.17651417652652 C 0.0 **** -0.24
6552 H 207.4892412701024 53.13090047071357 140.02925276230013 H 0.0 **** 0.06
6553 H 207.5443331148581 52.89018281192463 138.26612606206737 H 0.0 **** 0.06
6554 H 208.67329686491507 52.007375836600815 139.32191086459875 H 0.0 **** 0.06
6555 H 208.86180397816773 53.7616330187376 139.08709251730804 H 0.0 **** 0.06
6556 C 71.28855114755103 69.3379034708787 122.38066255781484 C 0.0 **** -0.24
6557 H 71.84278207704287 70.21829141352634 122.70842883384637 H 0.0 **** 0.06
6558 H 71.97261835822522 68.63486826749445 121.90428546636954 H 0.0 **** 0.06
6559 H 70.51935207596384 69.6371546224286 121.6687221773224 H 0.0 **** 0.06
6560 H 70.82088113589484 68.86232392184971 123.24342928934973 H 0.0 **** 0.06
6561 C 206.29782023007442 38.75633498481005 22.38754008551504 C 0.0 **** -0.24
6562 H 207.17390117426427 39.06805429021651 22.957088882690044 H 0.0 **** 0.06
6563 H 205.4136959457021 38.814053614285285 23.021416545109986 H 0.0 **** 0.06
6564 H 206.43437731995232 37.729979098918264 22.04717950645758 H 0.0 **** 0.06
6565 H 206.17278649409874 39.4116427399848 21.525990973512336 H 0.0 **** 0.06
6566 C 12.999157643210268 0.11860678895995136 65.53304292458111 C 0.0 **** -0.24
6567 H 14.018677386710735 -0.06302657875122009 65.8748650897607 H 0.0 **** 0.06
6568 H 13.012468051610398 0.382759130573433 64.47582301450274 H 0.0 **** 0.06
6569 H 12.5647324161298 0.9374647697215011 66.10608995051805 H 0.0 **** 0.06
6570 H 12.402447862671906 -0.7824833085418987 65.67560394819108 H 0.0 **** 0.06
6571 C 228.96355668439782 28.358392304785255 92.24480955141416 C 0.0 **** -0.24
6572 H 229.2022577271162 29.33459892762548 91.82163226010823 H 0.0 **** 0.06
6573 H 228.89228569569963 28.44063362848985 93.32957928939416 H 0.0 **** 0.06
6574 H 229.7468832949117 27.647916422735506 91.98345921662599 H 0.0 **** 0.06
6575 H 228.01094665883187 28.01389683325081 91.84335149552888 H 0.0 **** 0.06
6576 C 69.0548734659466 157.39993398237922 129.10651024898075 C 0.0 **** -0.24
6577 H 69.15801286443036 156.39660110961287 129.5187977361815 H 0.0 **** 0.06
6578 H 70.04222936482131 157.8454816180043 128.98674297983735 H 0.0 **** 0.06
6579 H 68.45965311446994 158.01098071187258 129.78486723022132 H 0.0 **** 0.06
6580 H 68.55956279681044 157.34483790488056 128.13725572636486 H 0.0 **** 0.06
6581 C 202.003928914921 139.3609487584107 168.34907536366106 C 0.0 **** -0.24
6582 H 202.6811893692627 139.28116482512306 167.49867641538722 H 0.0 **** 0.06
6583 H 201.4576810834488 140.30273323541505 168.29134426166152 H 0.0 **** 0.06
6584 H 202.57791016328926 139.32773723486517 169.27472491035095 H 0.0 **** 0.06
6585 H 201.29797301900203 138.5295877431961 168.3303477953726 H 0.0 **** 0.06
6586 C 197.25003177237747 114.33518483474845 238.08629673994974 C 0.0 **** -0.24
6587 H 196.97772214886345 114.91963380685834 237.20778183891662 H 0.0 **** 0.06
6588 H 197.97733732775552 114.89027961449895 238.68047348435846 H 0.0 **** 0.06
6589 H 197.68545457416067 113.38672940147214 237.77189597195778 H 0.0 **** 0.06
6590 H 196.35962560461815 114.14469626051479 238.6863163551172 H 0.0 **** 0.06
6591 C 144.27191438678238 91.60740560192215 62.28316424331794 C 0.0 **** -0.24
6592 H 144.19036232000659 90.82418802079002 63.03739302706549 H 0.0 **** 0.06
6593 H 144.11791400109954 92.57984314990352 62.75174259692068 H 0.0 **** 0.06
6594 H 143.5153444183623 91.45145663613226 61.51454511391947 H 0.0 **** 0.06
6595 H 145.26264040846388 91.5750051196946 61.83049027464327 H 0.0 **** 0.06
6596 C 17.230782368780467 217.58720239067003 128.4972414578514 C 0.0 **** -0.24
6597 H 16.912254547698126 217.23639110996618 129.47868021709908 H 0.0 **** 0.06
6598 H 16.68030163733127 217.0515665347129 127.72383162915685 H 0.0 **** 0.06
6599 H 18.29920823665556 217.40435693441725 128.37694895589604 H 0.0 **** 0.06
6600 H 17.03327744475611 218.6560102167328 128.41176508415995 H 0.0 **** 0.06
6601 C 65.22283993652968 231.8729286970688 108.6918364548549 C 0.0 **** -0.24
6602 H 65.36825087882832 231.645530178552 109.74768972902723 H 0.0 **** 0.06
6603 H 66.18477585673605 231.84740199419258 108.17950429174428 H 0.0 **** 0.06
6604 H 64.78311652498533 232.8656248202762 108.59156529895986 H 0.0 **** 0.06
6605 H 64.55596019397325 231.13365719715426 108.24968080998539 H 0.0 **** 0.06
6606 C 85.93345752934175 79.45516626779886 40.57171903561307 C 0.0 **** -0.24
6607 H 85.75449767684128 79.89174491401147 41.55408048723045 H 0.0 **** 0.06
6608 H 84.98926183930436 79.11398046665747 40.14741334914571 H 0.0 **** 0.06
6609 H 86.61429084434752 78.60949746786653 40.670018829547246 H 0.0 **** 0.06
6610 H 86.37748330593797 80.20472379360439 39.91662118435103 H 0.0 **** 0.06
6611 C 21.334003305343643 190.58443898304324 3.2318090329583953 C 0.0 **** -0.24
6612 H 21.14861764304628 191.56520960531145 2.7932868369196484 H 0.0 **** 0.06
6613 H 21.095076427271593 189.8097334615743 2.502717215645063 H 0.0 **** 0.06
6614 H 20.70891057585618 190.45745226522806 4.115010035271638 H 0.0 **** 0.06
6615 H 22.383350033147977 190.50558642715103 3.514827198332739 H 0.0 **** 0.06
6616 C 179.7411584802931 26.899058760122244 152.33013639415623 C 0.0 **** -0.24
6617 H 179.7901114604228 26.777970750013978 151.24804542413548 H 0.0 **** 0.06
6618 H 180.607112597355 27.4660307217425 152.67178362520866 H 0.0 **** 0.06
6619 H 179.73743941075008 25.918166753041106 152.80545692592656 H 0.0 **** 0.06
6620 H 178.82904158758885 27.43486404894638 152.5940341797704 H 0.0 **** 0.06
6621 C 215.28174413972613 43.640560999463986 56.75867147062431 C 0.0 **** -0.24
6622 H 215.88187587908595 44.25490185380093 57.43101572316971 H 0.0 **** 0.06
6623 H 214.44906680228047 44.22967887951842 56.37516118626607 H 0.0 **** 0.06
6624 H 214.89718565054875 42.77794667664804 57.303135308461236 H 0.0 **** 0.06
6625 H 215.90034226555338 43.30031642540578 55.928751264346516 H 0.0 **** 0.06
6626 C 96.7825212091314 36.010885833282856 94.53984438652313 C 0.0 **** -0.24
6627 H 96.97191045492764 35.95850969284598 93.46749648270722 H 0.0 **** 0.06
6628 H 95.87266462384437 36.584355075491004 94.72035921439814 H 0.0 **** 0.06
6629 H 97.62318507433503 36.49740285079875 95.03394864790559 H 0.0 **** 0.06
6630 H 96.66181968699223 35.00322704123832 94.93671144745682 H 0.0 **** 0.06
6631 C 46.830839648773434 196.00259638204176 126.09931323060093 C 0.0 **** -0.24
6632 H 46.04525933184108 196.25474994012188 126.81043256049875 H 0.0 **** 0.06
6633 H 47.684094385220476 196.66507212578304 126.24972209583615 H 0.0 **** 0.06
6634 H 46.452717933668225 196.12021490476255 125.08391999735917 H 0.0 **** 0.06
6635 H 47.141822544468155 194.9696303273114 126.25362243946822 H 0.0 **** 0.06
6636 C 197.73996584963902 137.16701841921648 84.19169455492604 C 0.0 **** -0.24
6637 H 197.56272868427607 137.36756594106467 83.13577399298853 H 0.0 **** 0.06
6638 H 198.78461272921788 137.37054703250422 84.42960332186328 H 0.0 **** 0.06
6639 H 197.51433568508375 136.12313963998218 84.4068240047543 H 0.0 **** 0.06
6640 H 197.09802948955104 137.8085102315135 84.79563622074659 H 0.0 **** 0.06
6641 C 132.51155796570538 31.25065693487548 110.1172826021454 C 0.0 **** -0.24
6642 H 132.78520847346817 32.04692056611924 109.4242492630838 H 0.0 **** 0.06
6643 H 133.36233903081268 31.018315753490924 110.75791800932257 H 0.0 **** 0.06
6644 H 132.2248153874661 30.362093941192995 109.55473565270549 H 0.0 **** 0.06
6645 H 131.67229146406297 31.57770456828061 110.73138044214201 H 0.0 **** 0.06
6646 C 24.457699826954325 186.57333892219052 63.37008330222983 C 0.0 **** -0.24
6647 H 24.043522739283418 187.49676435899968 63.77394016363175 H 0.0 **** 0.06
6648 H 24.937315837667967 186.77800716871212 62.41312355584853 H 0.0 **** 0.06
6649 H 23.655534310911747 185.84808450371543 63.22635403566187 H 0.0 **** 0.06
6650 H 25.191574815193206 186.16957354149724 64.06681178420561 H 0.0 **** 0.06
6651 C 103.42821199626073 3.289364702108429 121.8170351784442 C 0.0 **** -0.24
6652 H 102.73346956097893 3.7178605737679646 121.09484905079091 H 0.0 **** 0.06
6653 H 102.95830165158344 2.438985560140921 122.31269349510234 H 0.0 **** 0.06
6654 H 103.69065667547105 4.043220458874487 122.55951202034424 H 0.0 **** 0.06
6655 H 104.32997695218296 2.9573045327800145 121.3019783045404 H 0.0 **** 0.06
6656 C 143.18337159758832 213.88276643337383 165.2475247533219 C 0.0 **** -0.24
6657 H 143.21551708902814 214.39298502206748 166.210216930748 H 0.0 **** 0.06
6658 H 143.25255358178092 212.80622014918887 165.40510179689795 H 0.0 **** 0.06
6659 H 144.01941865021703 214.21494033770657 164.6328814564676 H 0.0 **** 0.06
6660 H 142.24556427415425 214.1181790519742 164.74369551793342 H 0.0 **** 0.06
6661 C 120.36708508495948 124.97706630580146 28.203785750386572 C 0.0 **** -0.24
6662 H 120.61841871501451 124.07725767368291 27.642723012112327 H 0.0 **** 0.06
6663 H 119.62615714097595 124.73372766568193 28.96540813621982 H 0.0 **** 0.06
6664 H 119.95820942935723 125.72630335610191 27.52512669046675 H 0.0 **** 0.06
6665 H 121.26440014092273 125.37055351362076 28.681187127517205 H 0.0 **** 0.06
6666 C 95.22530426647106 61.34931219943749 69.09295519644965 C 0.0 **** -0.24
6667 H 94.66273761966113 60.94160457588299 69.93191575311536 H 0.0 **** 0.06
6668 H 94.90375520591755 62.37335073131871 68.9036753672992 H 0.0 **** 0.06
6669 H 95.04622082080789 60.74114165659398 68.20603508510484 H 0.0 **** 0.06
6670 H 96.28902707375738 61.340093491147115 69.33146175269471 H 0.0 **** 0.06
6671 C 248.90088395743174 71.76566260785845 185.87253002580331 C 0.0 **** -0.24
6672 H 248.85492876447722 72.19024197004751 184.8696476523496 H 0.0 **** 0.06
6673 H 247.89080538843834 71.65032282282326 186.2646710464105 H 0.0 **** 0.06
6674 H 249.46885853291076 72.43161535602385 186.5222425691365 H 0.0 **** 0.06
6675 H 249.3895957309128 70.79210770192714 185.83185793956306 H 0.0 **** 0.06
6676 C 81.56017242622127 112.3423077938871 150.7937511535064 C 0.0 **** -0.24
6677 H 81.46453148088767 112.70215301541725 151.81787848398656 H 0.0 **** 0.06
6678 H 81.56428756830704 111.25241965088628 150.79022010660827 H 0.0 **** 0.06
6679 H 82.49182036596679 112.71151160115323 150.36551496882996 H 0.0 **** 0.06
6680 H 80.72021522521848 112.70485334510579 150.20163783023153 H 0.0 **** 0.06
6681 C 123.29812286281498 109.02154060110075 100.82662573364513 C 0.0 **** -0.24
6682 H 123.71921665080401 108.77131121625632 101.80010960145779 H 0.0 **** 0.06
6683 H 124.0948881008735 109.0545110288005 100.08281414067272 H 0.0 **** 0.06
6684 H 122.8112427135143 109.99568819024034 100.88213945747077 H 0.0 **** 0.06
6685 H 122.5658399878782 108.2660829818729 100.5425585914802 H 0.0 **** 0.06
6686 C 153.31059897093047 158.09919116632673 137.67187891698916 C 0.0 **** -0.24
6687 H 152.805080227512 158.76143552550678 138.3744433439656 H 0.0 **** 0.06
6688 H 153.78067009632886 157.28140191164786 138.21863338358165 H 0.0 **** 0.06
6689 H 154.0720225466082 158.65884844685604 137.1292598709392 H 0.0 **** 0.06
6690 H 152.58440113261918 157.69518247835643 136.96614861866067 H 0.0 **** 0.06
6691 C 170.6164036882638 193.82254316280833 84.9078799772335 C 0.0 **** -0.24
6692 H 170.46887987807287 193.40306735801056 85.90258512676618 H 0.0 **** 0.06
6693 H 171.4153194872162 194.56350424637424 84.93979846536709 H 0.0 **** 0.06
6694 H 169.69314004918402 194.29776393247283 84.57355818528328 H 0.0 **** 0.06
6695 H 170.88596185872728 193.02629389124098 84.2137236090737 H 0.0 **** 0.06
6696 C 97.73525584599543 32.658495060898446 7.987473741255812 C 0.0 **** -0.24
6697 H 98.33758694077912 32.3376731358056 7.136856244873769 H 0.0 **** 0.06
6698 H 97.02582976830257 31.872057502609294 8.245687179279173 H 0.0 **** 0.06
6699 H 97.19315602921364 33.567069734728165 7.72664158628848 H 0.0 **** 0.06
6700 H 98.3861384113861 32.85444607829234 8.839886586807864 H 0.0 **** 0.06
6701 C 35.371581990976296 4.8556567874356915 208.78106082231307 C 0.0 **** -0.24
6702 H 35.36187526815226 5.4074390003910935 207.84142912220454 H 0.0 **** 0.06
6703 H 36.4023399561747 4.68937341595533 209.09406789321895 H 0.0 **** 0.06
6704 H 34.87434122482105 3.8954379141003557 208.64339490072587 H 0.0 **** 0.06
6705 H 34.84721460128671 5.42985374029891 209.54470620220548 H 0.0 **** 0.06
6706 C 186.0350696559616 147.1442240127548 137.12806866401405 C 0.0 **** -0.24
6707 H 185.97871319926907 148.18365367475 137.4530879058472 H 0.0 **** 0.06
6708 H 186.9618093442649 146.9865745233429 136.57613047912926 H 0.0 **** 0.06
6709 H 185.18444692292434 146.91968236614142 136.48376625537577 H 0.0 **** 0.06
6710 H 186.01425587847336 146.490130336188 137.999264858759 H 0.0 **** 0.06
6711 C 56.73288255353293 94.00874031002769 228.2295450347758 C 0.0 **** -0.24
6712 H 56.37994752615165 93.98239806834928 227.1976494291454 H 0.0 **** 0.06
6713 H 56.765999091515994 95.04182778945832 228.57538043276833 H 0.0 **** 0.06
6714 H 57.7315788184784 93.57536064701316 228.28185569930665 H 0.0 **** 0.06
6715 H 56.05459357129416 93.43488199203239 228.8596325206949 H 0.0 **** 0.06
6716 C 38.02502718485832 119.47818158690089 175.62917464937354 C 0.0 **** -0.24
6717 H 37.80888121765341 120.44992437804103 175.18501539919905 H 0.0 **** 0.06
6718 H 37.351761709810035 118.7298228021356 175.20895647266994 H 0.0 **** 0.06
6719 H 37.88137116935289 119.53247278580037 176.70758874840035 H 0.0 **** 0.06
6720 H 39.056322871011986 119.20113946736905 175.4128012882297 H 0.0 **** 0.06
6721 C 130.1278520606697 64.48073883019237 77.88339378769743 C 0.0 **** -0.24
6722 H 130.4587445556772 65.2488122982561 78.58260325243657 H 0.0 **** 0.06
6723 H 130.97462850581508 63.851857264628535 77.60752569859068 H 0.0 **** 0.06
6724 H 129.7213311104728 64.95478272606812 76.99027136247906 H 0.0 **** 0.06
6725 H 129.3579221324907 63.86936551313761 78.35339286830069 H 0.0 **** 0.06
6726 C 14.629646590078849 118.65470989041023 1.7638461759260906 C 0.0 **** -0.24
6727 H 14.13874212849106 118.11718217370938 0.9525186630584415 H 0.0 **** 0.06
6728 H 15.70034980415565 118.44863106254888 1.7408738931592609 H 0.0 **** 0.06
6729 H 14.216536673018439 118.32821221048303 2.7182140453811883 H 0.0 **** 0.06
6730 H 14.46313678899564 119.72496466847966 1.6428058418212004 H 0.0 **** 0.06
6731 C 2.6716565842971534 226.3619092439224 56.633593860830416 C 0.0 **** -0.24
6732 H 3.315770194794439 225.93641757590547 55.86394454584615 H 0.0 **** 0.06
6733 H 1.9124554399346607 226.98861903598998 56.16657242686864 H 0.0 **** 0.06
6734 H 3.271576818677019 226.96303214944072 57.31607721118854 H 0.0 **** 0.06
6735 H 2.1885798519989095 225.5568703789319 57.188580237999986 H 0.0 **** 0.06
6736 C 57.24262356977988 201.18115537069923 141.26017428158684 C 0.0 **** -0.24
6737 H 56.203711178934896 200.8739480868373 141.14471741668956 H 0.0 **** 0.06
6738 H 57.53215156705028 201.09533116796598 142.30774686567096 H 0.0 **** 0.06
6739 H 57.35317292444836 202.21682366560964 140.9364682314639 H 0.0 **** 0.06
6740 H 57.88129545057592 200.5407486386101 140.65175089594732 H 0.0 **** 0.06
6741 C 132.18944502873975 59.99529639092373 32.86154407567214 C 0.0 **** -0.24
6742 H 132.61520927657767 59.06052440836672 33.226909262097436 H 0.0 **** 0.06
6743 H 132.9617622890654 60.76523677167572 32.8464297693796 H 0.0 **** 0.06
6744 H 131.37776922543827 60.306730318981096 33.519410226689104 H 0.0 **** 0.06
6745 H 131.8035137098975 59.84825903951682 31.85266172056737 H 0.0 **** 0.06
6746 C 96.31789339706515 58.03931590788818 45.63481807132413 C 0.0 **** -0.24
6747 H 95.32026762763562 57.630225602172345 45.793589958782576 H 0.0 **** 0.06
6748 H 96.38327565557879 58.45763259149726 44.63039889502144 H 0.0 **** 0.06
6749 H 97.05773295120824 57.24736370388217 45.74751546021267 H 0.0 **** 0.06
6750 H 96.50946455410437 58.82306783797307 46.36827153330913 H 0.0 **** 0.06
6751 C 98.38364804871182 31.079239254440864 227.64923676810338 C 0.0 **** -0.24
6752 H 99.39502655887622 31.428624203953476 227.85895382371987 H 0.0 **** 0.06
6753 H 98.00576492734427 31.579252330750933 226.75698688880715 H 0.0 **** 0.06
6754 H 97.73706146032822 31.30841888255948 228.49609687909526 H 0.0 **** 0.06
6755 H 98.3983958234389 30.002573159446797 227.48329647464334 H 0.0 **** 0.06
6756 C 216.78226267237213 87.3378182146509 223.52249604349726 C 0.0 **** -0.24
6757 H 217.8705199976855 87.31601558664349 223.46528408774867 H 0.0 **** 0.06
6758 H 216.38664275765922 87.91584969586106 222.68751277645705 H 0.0 **** 0.06
6759 H 216.47756357276052 87.7998956243201 224.46151867123234 H 0.0 **** 0.06
6760 H 216.39566923154814 86.31986361409466 223.47592878722062 H 0.0 **** 0.06
6761 C 46.203181736428405 234.28229381417754 172.21343064301922 C 0.0 **** -0.24
6762 H 46.43348762327517 233.63670273462458 171.36647850958602 H 0.0 **** 0.06
6763 H 45.58654449820679 233.7369322093016 172.9290617084686 H 0.0 **** 0.06
6764 H 45.66208716124484 235.16122078788368 171.86327410269254 H 0.0 **** 0.06
6765 H 47.130060223424465 234.59403822671536 172.69569640803635 H 0.0 **** 0.06
6766 C 40.34568821942645 129.8772524499123 74.1514445757631 C 0.0 **** -0.24
6767 H 40.45986086934849 129.05599402614342 73.44250396056447 H 0.0 **** 0.06
6768 H 40.52990368869766 130.82353934682948 73.64268988059527 H 0.0 **** 0.06
6769 H 41.06006360728696 129.75658661534027 74.96589477792298 H 0.0 **** 0.06
6770 H 39.33263852620547 129.8714384737172 74.55301285205152 H 0.0 **** 0.06
6771 C 27.18274785388894 163.66111369735773 184.36317556465588 C 0.0 **** -0.24
6772 H 27.91075458902398 162.96132138873662 183.95167405002735 H 0.0 **** 0.06
6773 H 27.59543809970691 164.13222132167667 185.2551665592469 H 0.0 **** 0.06
6774 H 26.270416621885857 163.12398477660412 184.62358835271868 H 0.0 **** 0.06
6775 H 26.9547634835794 164.42568589910985 183.6201963935045 H 0.0 **** 0.06
6776 C 234.64356936785427 168.795718931105 55.61932466554342 C 0.0 **** -0.24
6777 H 235.1358851072485 169.14497985135117 54.7112940499066 H 0.0 **** 0.06
6778 H 235.34586349079916 168.8388657758259 56.45232280006417 H 0.0 **** 0.06
6779 H 234.30984579157547 167.7674408633989 55.47783839262152 H 0.0 **** 0.06
6780 H 233.78516884195307 169.43083680335735 55.83378066610436 H 0.0 **** 0.06
6781 C 184.41547440929077 54.76703093684429 176.00173823299826 C 0.0 **** -0.24
6782 H 183.73755768128598 53.940994263868305 175.78597471119855 H 0.0 **** 0.06
6783 H 185.0078332014271 54.99150975419579 175.11417477036326 H 0.0 **** 0.06
6784 H 185.07875792301692 54.487272472108856 176.82086933448767 H 0.0 **** 0.06
6785 H 183.8371556825827 55.64619426779106 176.28582071525648 H 0.0 **** 0.06
6786 C 213.76907877566944 33.781372955404834 143.08440655643045 C 0.0 **** -0.24
6787 H 213.85397003350843 33.53235349903841 144.14222665205222 H 0.0 **** 0.06
6788 H 212.98756061768847 34.52947027879472 142.94872184975603 H 0.0 **** 0.06
6789 H 213.51700189855308 32.88408389828649 142.5190295431155 H 0.0 **** 0.06
6790 H 214.71913818161266 34.1796988838929 142.72803434843647 H 0.0 **** 0.06
6791 C 198.25717905301397 6.1626042622662 200.09102402347077 C 0.0 **** -0.24
6792 H 199.32123798266747 6.396935017870192 200.04471774216245 H 0.0 **** 0.06
6793 H 198.06257360573028 5.2486169207624584 199.52844030125573 H 0.0 **** 0.06
6794 H 197.68561435026166 6.984357120997629 199.65940428305413 H 0.0 **** 0.06
6795 H 197.96250457933206 6.020624723794924 201.1307246212223 H 0.0 **** 0.06
6796 C 95.10132435230773 236.3986248172716 40.219579668183684 C 0.0 **** -0.24
6797 H 95.30437498483488 235.49705057968097 39.64225575853695 H 0.0 **** 0.06
6798 H 95.70057306268092 237.2215331556959 39.82973044059608 H 0.0 **** 0.06
6799 H 95.35740098858591 236.2250508632772 41.26439898298341 H 0.0 **** 0.06
6800 H 94.04432600187025 236.64915222804524 40.140851946098536 H 0.0 **** 0.06
6801 C 108.05140527506663 176.28034716864522 79.1535244702273 C 0.0 **** -0.24
6802 H 109.04730432911117 176.27048167160217 78.70949257423393 H 0.0 **** 0.06
6803 H 107.30193604438699 176.22123370761787 78.36442876133992 H 0.0 **** 0.06
6804 H 107.91456667057989 177.20420190593092 79.71625459871865 H 0.0 **** 0.06
6805 H 107.94348852565125 175.4278969671544 79.82336265031029 H 0.0 **** 0.06
6806 C 28.174724422747474 130.46349681527445 49.245947362422356 C 0.0 **** -0.24
6807 H 28.418782378685023 129.6825542095551 49.966639347168865 H 0.0 **** 0.06
6808 H 28.93642293224326 131.24306620500099 49.28478715040821 H 0.0 **** 0.06
6809 H 27.202802024471893 130.89158475142273 49.49027733338964 H 0.0 **** 0.06
6810 H 28.142942084053956 130.03598554200954 48.244124245979194 H 0.0 **** 0.06
6811 C 58.96461780647218 89.29210724047272 57.56186846023766 C 0.0 **** -0.24
6812 H 58.81712429190395 89.06062312715858 56.50746657871437 H 0.0 **** 0.06
6813 H 59.15147260306318 88.36970543944443 58.11309598676709 H 0.0 **** 0.06
6814 H 58.071506565989665 89.77683711735534 57.95614479387308 H 0.0 **** 0.06
6815 H 59.819178459596884 89.95944852044823 57.67098889648662 H 0.0 **** 0.06
6816 C 129.1170401198829 32.953615005756774 122.42548676956622 C 0.0 **** -0.24
6817 H 129.33969302376426 33.39283344286406 121.4534464357223 H 0.0 **** 0.06
6818 H 129.51553443045034 31.93964733652561 122.46566665927952 H 0.0 **** 0.06
6819 H 128.037499478285 32.9259010819074 122.57249869955538 H 0.0 **** 0.06
6820 H 129.57543354703208 33.5560781617299 123.21033528370756 H 0.0 **** 0.06
6821 C 14.554064202970054 245.4050493095575 64.23976353685575 C 0.0 **** -0.24
6822 H 14.294713094444873 246.41377163517922 64.56285772092846 H 0.0 **** 0.06
6823 H 15.06431092469873 244.88419683952185 65.05006197425095 H 0.0 **** 0.06
6824 H 15.212164617072418 245.4605852915802 63.372028451210866 H 0.0 **** 0.06
6825 H 13.646565720196804 244.86403305070414 63.972360326132645 H 0.0 **** 0.06
6826 C 235.8836089488075 141.23781407345322 131.86765853083455 C 0.0 **** -0.24
6827 H 236.65363958526058 141.17359616533525 132.6366399683124 H 0.0 **** 0.06
6828 H 234.91334419015993 141.0003857130817 132.30566727026653 H 0.0 **** 0.06
6829 H 236.10612651510013 140.52777082819998 131.07030158142547 H 0.0 **** 0.06
6830 H 235.86189271983477 142.24769576608148 131.4592127790209 H 0.0 **** 0.06
6831 C 22.257860984140038 147.7214992567727 15.220499632362277 C 0.0 **** -0.24
6832 H 23.282373377608977 148.02311439502986 15.437709737770021 H 0.0 **** 0.06
6833 H 21.57828818269259 148.21969267307784 15.912927036403289 H 0.0 **** 0.06
6834 H 22.16539667525116 146.64095418657197 15.334065828379892 H 0.0 **** 0.06
6835 H 22.00568681467628 148.0015957539012 14.198002833256737 H 0.0 **** 0.06
6836 C 164.16835837152385 23.41208044831029 33.75258116299082 C 0.0 **** -0.24
6837 H 165.17288403956022 23.55973973331467 33.35625366535558 H 0.0 **** 0.06
6838 H 163.71201177745817 24.381171350060555 33.95519454503756 H 0.0 **** 0.06
6839 H 164.22385566387825 22.835830511267517 34.67633904969939 H 0.0 **** 0.06
6840 H 163.5655314977745 22.871241430357486 33.022941876951094 H 0.0 **** 0.06
6841 C 241.47600197723693 66.73037254957407 129.19731553045875 C 0.0 **** -0.24
6842 H 241.14039626311214 65.93731917769094 129.8654567743797 H 0.0 **** 0.06
6843 H 241.44769743548784 67.68463357451094 129.72405581345893 H 0.0 **** 0.06
6844 H 240.82138563566576 66.77525605246757 128.32773317552326 H 0.0 **** 0.06
6845 H 242.49592401446037 66.52463983023415 128.8739973505097 H 0.0 **** 0.06
6846 C 46.34097598961776 202.4872906281267 227.3651700344249 C 0.0 **** -0.24
6847 H 46.20780010368762 203.35774084613183 226.72270355964665 H 0.0 **** 0.06
6848 H 47.19642719655408 201.9073875499604 227.01726023074062 H 0.0 **** 0.06
6849 H 45.443340688676386 201.86982723498141 227.3296539066987 H 0.0 **** 0.06
6850 H 46.516517740820944 202.81547954572466 228.38923286867083 H 0.0 **** 0.06
6851 C 159.69977646443908 228.44351045907533 171.087475686366 C 0.0 **** -0.24
6852 H 159.30045192449288 227.42996913377704 171.13011917434724 H 0.0 **** 0.06
6853 H 160.76791762048168 228.42185492662253 171.3012093237405 H 0.0 **** 0.06
6854 H 159.19301114002292 229.06453294757495 171.82602395300486 H 0.0 **** 0.06
6855 H 159.53506358483247 228.85676830100826 170.09227460381297 H 0.0 **** 0.06
6856 C 152.6110044053023 120.89754620249155 225.86766190722574 C 0.0 **** -0.24
6857 H 151.78154018182198 120.8692666379994 226.57485844665638 H 0.0 **** 0.06
6858 H 153.52698007106954 121.16834470419727 226.39250504316092 H 0.0 **** 0.06
6859 H 152.40301230084688 121.63648794400879 225.0931743565496 H 0.0 **** 0.06
6860 H 152.72968174981088 119.91546257779848 225.40924177558733 H 0.0 **** 0.06
6861 C 170.01134223799392 19.45430506903425 114.30501324987165 C 0.0 **** -0.24
6862 H 169.32876072504024 19.780839508522263 115.09022043061859 H 0.0 **** 0.06
6863 H 170.69178470597976 18.70321575598983 114.70655585444169 H 0.0 **** 0.06
6864 H 170.58295534505268 20.307774711649287 113.94266869300296 H 0.0 **** 0.06
6865 H 169.43936818101503 19.0241286133475 113.48308961541471 H 0.0 **** 0.06
6866 C 203.3557708912875 150.05391264307667 43.867992364073814 C 0.0 **** -0.24
6867 H 202.89189013762578 149.07048837080066 43.948415760527226 H 0.0 **** 0.06
6868 H 204.27883901888046 150.06789596473345 44.449430485621264 H 0.0 **** 0.06
6869 H 202.67252324464644 150.8112629993189 44.25128161864353 H 0.0 **** 0.06
6870 H 203.5820147267165 150.26398486152 42.82244372207734 H 0.0 **** 0.06
6871 C 100.9000517741454 226.55688658699518 82.26003370972839 C 0.0 **** -0.24
6872 H 101.471480267466 225.6292244024904 82.24021171543325 H 0.0 **** 0.06
6873 H 99.91152964240484 226.3830781545759 81.83331810623665 H 0.0 **** 0.06
6874 H 101.41994019233277 227.31665277484623 81.67692142543677 H 0.0 **** 0.06
6875 H 100.79610213442186 226.89669024333966 83.29070995428737 H 0.0 **** 0.06
6876 C 134.63534371103745 104.78759590621257 190.76226674618124 C 0.0 **** -0.24
6877 H 134.41775718961358 105.69820732487779 191.3196180807381 H 0.0 **** 0.06
6878 H 135.24130714408346 104.12228277134938 191.3767415729434 H 0.0 **** 0.06
6879 H 135.17933352899186 105.03954135941902 189.8526799595307 H 0.0 **** 0.06
6880 H 133.70130954917366 104.28994006140798 190.500250678351 H 0.0 **** 0.06
6881 C 47.59784515621371 180.78052143252768 90.25605256209818 C 0.0 **** -0.24
6882 H 47.32355041138166 180.10505278417583 91.0653973908558 H 0.0 **** 0.06
6883 H 47.70603557377953 180.21471602608625 89.33090844303382 H 0.0 **** 0.06
6884 H 48.54328435037425 181.2688463988648 90.49600264832637 H 0.0 **** 0.06
6885 H 46.82087790678642 181.53480460179242 90.13268579030031 H 0.0 **** 0.06
6886 C 81.36520101373725 230.99006509186918 47.46332225498699 C 0.0 **** -0.24
6887 H 81.73470963850906 230.2292544411948 48.15051298120878 H 0.0 **** 0.06
6888 H 81.22838455224911 231.92917422278217 47.999488148448364 H 0.0 **** 0.06
6889 H 80.41111450132615 230.66766770343165 47.04418094549149 H 0.0 **** 0.06
6890 H 82.08491638654192 231.13234572251682 46.657737644557045 H 0.0 **** 0.06
6891 C 131.0603522420781 110.9449086030809 186.65785901643716 C 0.0 **** -0.24
6892 H 131.65464282360463 111.83322875008756 186.44388100361732 H 0.0 **** 0.06
6893 H 130.63901413028242 110.5583365585471 185.73018352707504 H 0.0 **** 0.06
6894 H 130.2529144473304 111.20514091635454 187.3427414340881 H 0.0 **** 0.06
6895 H 131.69391718103373 110.18502957136062 187.11548866552477 H 0.0 **** 0.06
6896 C 40.32839040584872 221.535583964833 169.58258420550266 C 0.0 **** -0.24
6897 H 39.40022651210086 222.0308314705908 169.29700713099896 H 0.0 **** 0.06
6898 H 40.50196397125757 221.6750313854686 170.64890976035034 H 0.0 **** 0.06
6899 H 41.15645980948747 221.96661026708665 169.01995647965282 H 0.0 **** 0.06
6900 H 40.25396215669605 220.47075135671236 169.36095495291352 H 0.0 **** 0.06
6901 C 118.76695796082163 62.531097391155555 35.931849973004816 C 0.0 **** -0.24
6902 H 119.22458265626511 61.613033735931026 35.56447642526355 H 0.0 **** 0.06
6903 H 118.4552100961809 63.145049317835685 35.08701338085724 H 0.0 **** 0.06
6904 H 119.4907319184382 63.080955974465724 36.534265423818084 H 0.0 **** 0.06
6905 H 117.89903052541663 62.284993024852156 36.54334827539154 H 0.0 **** 0.06
6906 C 133.44706841702984 122.86512003214392 71.54644957069794 C 0.0 **** -0.24
6907 H 134.31159134863708 122.27459886933767 71.2420461662822 H 0.0 **** 0.06
6908 H 133.38666987999656 122.88477009243502 72.63524866818426 H 0.0 **** 0.06
6909 H 132.53978018001192 122.41830483265514 71.13990092480208 H 0.0 **** 0.06
6910 H 133.55232854055086 123.88194269787223 71.1695297756215 H 0.0 **** 0.06
6911 C 40.09555461285228 190.21790145657272 199.07726364286387 C 0.0 **** -0.24
6912 H 39.90437362041304 190.65238973212712 198.09547886676302 H 0.0 **** 0.06
6913 H 39.60249431260188 190.8179621799718 199.84198008465063 H 0.0 **** 0.06
6914 H 41.169179396000416 190.2008912645538 199.2630135855278 H 0.0 **** 0.06
6915 H 39.706214522820176 189.20024403409312 199.10526779947895 H 0.0 **** 0.06
6916 C 42.373747493058545 20.150212479917315 189.6785927834496 C 0.0 **** -0.24
6917 H 42.51513085105282 20.450261722153357 188.63993317872928 H 0.0 **** 0.06
6918 H 41.58399144767675 20.7531392943185 190.12644232449074 H 0.0 **** 0.06
6919 H 43.30214492867263 20.30100315315495 190.22909885944202 H 0.0 **** 0.06
6920 H 42.094678198143995 19.097414590588258 189.7185114447291 H 0.0 **** 0.06
6921 C 47.546529937742974 158.23203178753172 232.83985159383883 C 0.0 **** -0.24
6922 H 48.520152902024705 157.7943392781247 233.05911434653484 H 0.0 **** 0.06
6923 H 46.76014014811656 157.560887683485 233.18535739776726 H 0.0 **** 0.06
6924 H 47.450744339910926 158.38206883874764 231.76355071067124 H 0.0 **** 0.06
6925 H 47.45619116065993 159.19218423519254 233.34894663668786 H 0.0 **** 0.06
6926 C 34.55964141951816 162.56684360612124 244.66053063160064 C 0.0 **** -0.24
6927 H 34.20003656898743 163.41724267535128 245.24134588665606 H 0.0 **** 0.06
6928 H 33.71093587179999 162.04184766689477 244.2223871344822 H 0.0 **** 0.06
6929 H 35.11002837303906 161.88894067474592 245.31314260573794 H 0.0 **** 0.06
6930 H 35.21670559395423 162.92174231216376 243.8664744942671 H 0.0 **** 0.06
6931 C 115.35395189593757 105.46005472983617 248.30173308644947 C 0.0 **** -0.24
6932 H 115.14139491590899 106.3660314143882 247.73305887511947 H 0.0 **** 0.06
6933 H 116.39907909190617 105.18117327466888 248.16289555791644 H 0.0 **** 0.06
6934 H 114.71167526876175 104.65229916618364 247.95146140832358 H 0.0 **** 0.06
6935 H 115.16373974898622 105.64311597441159 249.359037907164 H 0.0 **** 0.06
6936 C 14.82119213251812 200.92014752316493 156.94967984977194 C 0.0 **** -0.24
6937 H 15.217464005051312 199.92764085866827 157.16389164193637 H 0.0 **** 0.06
6938 H 15.078683876719566 201.59621823220988 157.76557382351027 H 0.0 **** 0.06
6939 H 13.737174123948847 200.8643343686245 156.8521738797901 H 0.0 **** 0.06
6940 H 15.252315343355036 201.2904278441185 156.01997300214816 H 0.0 **** 0.06
6941 C 231.94618290133954 80.4762610091959 16.582171724098515 C 0.0 **** -0.24
6942 H 231.68622095206146 79.57241257018546 17.132167490185935 H 0.0 **** 0.06
6943 H 233.03161104746943 80.56284341508407 16.51774492705593 H 0.0 **** 0.06
6944 H 231.54286331496954 81.34626843331313 17.101299812088172 H 0.0 **** 0.06
6945 H 231.52570455421227 80.42491069373156 15.578005567182998 H 0.0 **** 0.06
6946 C 225.15576304811054 19.486594834371957 52.526362019460265 C 0.0 **** -0.24
6947 H 226.21906262744858 19.702801603430004 52.4232591316821 H 0.0 **** 0.06
6948 H 224.92878213301663 18.538764838124095 52.03952681136386 H 0.0 **** 0.06
6949 H 224.57660424871273 20.283149674901594 52.05947976639786 H 0.0 **** 0.06
6950 H 224.8997674883791 19.423244784781048 53.5846463042335 H 0.0 **** 0.06
6951 C 108.83631903204449 157.48962948662557 103.52342097982725 C 0.0 **** -0.24
6952 H 108.14426095104122 158.0686583636694 104.13604219636963 H 0.0 **** 0.06
6953 H 109.84125030102322 157.57127237586292 103.93677814456416 H 0.0 **** 0.06
6954 H 108.82873713733679 157.87642133677338 102.50420944533491 H 0.0 **** 0.06
6955 H 108.52814054940885 156.44395093626787 103.5182282400884 H 0.0 **** 0.06
6956 C 90.39178805954947 230.90434582421588 119.28533094908693 C 0.0 **** -0.24
6957 H 89.93420214233922 231.8223371695305 118.91536392922623 H 0.0 **** 0.06
6958 H 91.43477742483918 230.8658299836695 118.96881191880945 H 0.0 **** 0.06
6959 H 89.85771283185903 230.04411066557446 118.88164828533652 H 0.0 **** 0.06
6960 H 90.34071595155686 230.88609270543907 120.37327259157473 H 0.0 **** 0.06
6961 C 141.70924357424644 61.246248443159914 195.84666049066868 C 0.0 **** -0.24
6962 H 141.59159386930148 60.37782705217367 195.19904610167487 H 0.0 **** 0.06
6963 H 141.16148272945355 61.08329748695829 196.7755031166946 H 0.0 **** 0.06
6964 H 141.31855162759354 62.130800096471745 195.3438228004581 H 0.0 **** 0.06
6965 H 142.7663956185151 61.392430852703995 196.06897070189206 H 0.0 **** 0.06
6966 C 82.31798854327764 104.2748456236018 98.82884196110328 C 0.0 **** -0.24
6967 H 83.3623833551338 104.42298801587773 99.10253133404447 H 0.0 **** 0.06
6968 H 81.72429393180454 105.11370679998595 99.19292191123245 H 0.0 **** 0.06
6969 H 81.95380355493168 103.34935173998144 99.27557447715861 H 0.0 **** 0.06
6970 H 82.23183913054748 104.211969847604 97.74433770619953 H 0.0 **** 0.06
6971 C 12.587104949785584 149.72609355939701 123.29740527015113 C 0.0 **** -0.24
6972 H 12.593461638446769 150.706263660061 123.77481781828072 H 0.0 **** 0.06
6973 H 12.48733170432493 149.84758535596396 122.2188888771089 H 0.0 **** 0.06
6974 H 11.747782414815646 149.14346321186676 123.67724093249424 H 0.0 **** 0.06
6975 H 13.520428958905057 149.20775198007604 123.51976057370945 H 0.0 **** 0.06
6976 C 23.94474126272722 229.82255857794433 154.3942290951783 C 0.0 **** -0.24
6977 H 23.41000054248498 228.8779587622923 154.4932700901702 H 0.0 **** 0.06
6978 H 23.65015711632836 230.49243562745562 155.20227580899504 H 0.0 **** 0.06
6979 H 23.700798137713193 230.27937418241262 153.43550243081816 H 0.0 **** 0.06
6980 H 25.017841939071758 229.63912198779317 154.44764748471604 H 0.0 **** 0.06
6981 C 179.52849191738812 177.77834653325255 220.20785393354254 C 0.0 **** -0.24
6982 H 178.53900098563997 178.2355346556979 220.22691408512665 H 0.0 **** 0.06
6983 H 179.47987014767648 176.78872043736715 220.66318314644013 H 0.0 **** 0.06
6984 H 180.22676202323652 178.40123911483659 220.76729317464253 H 0.0 **** 0.06
6985 H 179.86829231872747 177.68762059551304 219.17624448288583 H 0.0 **** 0.06
6986 C 31.710132972405944 55.670608936449696 180.95203679024448 C 0.0 **** -0.24
6987 H 31.315039037680293 56.428230479074955 180.27568854826018 H 0.0 **** 0.06
6988 H 32.61425108343914 56.04746237633606 181.43014189847844 H 0.0 **** 0.06
6989 H 31.946326577385747 54.76776203511878 180.38759225217552 H 0.0 **** 0.06
6990 H 30.96553742114091 55.43890055330198 181.71394575086507 H 0.0 **** 0.06
6991 C 205.0423388430508 107.55625983269837 75.10887110634113 C 0.0 **** -0.24
6992 H 204.1075428871242 107.93080574059681 74.69062660607503 H 0.0 **** 0.06
6993 H 205.1924279752467 106.52307022147752 74.79391704709369 H 0.0 **** 0.06
6994 H 204.99678943291525 107.60210024194853 76.19636798667452 H 0.0 **** 0.06
6995 H 205.8701832753679 108.16903535480796 74.7530954501141 H 0.0 **** 0.06
6996 C 142.44345468975928 161.03847900551392 194.03194124600248 C 0.0 **** -0.24
6997 H 142.727533614885 161.88458089063622 194.6582210080008 H 0.0 **** 0.06
6998 H 143.32595098979954 160.6523151246287 193.5219831051997 H 0.0 **** 0.06
6999 H 141.70958486137727 161.3632618642221 193.2951965640028 H 0.0 **** 0.06
7000 H 142.0116716255796 160.2558377849502 194.65533491725867 H 0.0 **** 0.06
7001 C 205.29210526286596 224.31764438894052 26.461302861859906 C 0.0 **** -0.24
7002 H 204.38604616769192 223.78400193255354 26.17509977095864 H 0.0 **** 0.06
7003 H 205.5255213439936 224.10350564298884 27.505231556410365 H 0.0 **** 0.06
7004 H 205.13869177035275 225.38885968033264 26.33584507631457 H 0.0 **** 0.06
7005 H 206.11902023573992 223.992742621587 25.83008813204509 H 0.0 **** 0.06
7006 C 115.48536074950425 20.768534382577897 99.20362585526314 C 0.0 **** -0.24
7007 H 115.50143809078321 20.50625859213669 98.14692889109992 H 0.0 **** 0.06
7008 H 115.95184541548608 21.744239687137522 99.3441598239038 H 0.0 **** 0.06
7009 H 116.03417116486182 20.01822248546138 99.77357915414518 H 0.0 **** 0.06
7010 H 114.45303003491807 20.805617151243254 99.55344687554094 H 0.0 **** 0.06
7011 C 38.562590013626036 218.70652464802 229.0790553223844 C 0.0 **** -0.24
7012 H 39.21512299087149 218.92142389169845 228.23234604201198 H 0.0 **** 0.06
7013 H 39.05592975137114 219.01127069750675 230.00266039448138 H 0.0 **** 0.06
7014 H 38.35280659842371 217.6379733192741 229.11407724730077 H 0.0 **** 0.06
7015 H 37.629021222768245 219.2571519784394 228.96631039586399 H 0.0 **** 0.06
7016 C 178.3691060781451 201.23928388958194 114.94049584114313 C 0.0 **** -0.24
7017 H 178.5600493470173 200.33362681267644 115.51608032225934 H 0.0 **** 0.06
7018 H 178.52438864343475 201.0354134219087 113.88109142095453 H 0.0 **** 0.06
7019 H 179.05179713383882 202.02550775401286 115.26442413054613 H 0.0 **** 0.06
7020 H 177.3409943711095 201.56222890564328 115.1026729008685 H 0.0 **** 0.06
7021 C 153.8656344722657 21.779102024860848 182.44129388638135 C 0.0 **** -0.24
7022 H 154.28746384464716 20.77558115268863 182.38736423946204 H 0.0 **** 0.06
7023 H 154.6702746851834 22.506320720263872 182.55434111240328 H 0.0 **** 0.06
7024 H 153.19312405452587 21.844852486105722 183.29685755356513 H 0.0 **** 0.06
7025 H 153.3111958893334 21.990197739018953 181.525923992054 H 0.0 **** 0.06
7026 C 238.63141962700706 190.8389283560951 36.879520939642106 C 0.0 **** -0.24
7027 H 239.47333111446451 190.6404334410767 36.216375115682155 H 0.0 **** 0.06
7028 H 238.77942745759856 191.79833578201814 37.37640689590975 H 0.0 **** 0.06
7029 H 238.5631800130953 190.04893212692247 37.62707353110673 H 0.0 **** 0.06
7030 H 237.7105263774016 190.86916000716292 36.29647784783859 H 0.0 **** 0.06
7031 C 145.09027194717703 182.9363810428521 167.9332407947001 C 0.0 **** -0.24
7032 H 144.01356479051017 182.95185045294198 167.76716865496556 H 0.0 **** 0.06
7033 H 145.46871084431447 181.92698269176373 167.76913854595398 H 0.0 **** 0.06
7034 H 145.30371744517876 183.24349639289463 168.95676253071713 H 0.0 **** 0.06
7035 H 145.5741761226663 183.62306447042175 167.23952026232956 H 0.0 **** 0.06
7036 C 175.01934351902224 159.9677077947258 14.35438882408397 C 0.0 **** -0.24
7037 H 173.94654388377452 160.16169704114108 14.370962622285276 H 0.0 **** 0.06
7038 H 175.3745817053157 159.80735174852654 15.372495567937051 H 0.0 **** 0.06
7039 H 175.53602951116568 160.82328461856866 13.919364164727483 H 0.0 **** 0.06
7040 H 175.2188395818233 159.07990325381613 13.755792157119856 H 0.0 **** 0.06
7041 C 143.27966541973038 95.29199368481349 134.09473218020403 C 0.0 **** -0.24
7042 H 143.70841750611365 95.51679096916567 133.11793004960748 H 0.0 **** 0.06
7043 H 142.45423421400093 95.97582120241108 134.29485671303476 H 0.0 **** 0.06
7044 H 144.04432706888767 95.41024621545543 134.86255603483554 H 0.0 **** 0.06
7045 H 142.91183217631647 94.26652108541143 134.10351915723436 H 0.0 **** 0.06
7046 C 55.530693581052304 22.806269296803322 44.35112194832165 C 0.0 **** -0.24
7047 H 54.90590828014038 22.23726640362119 43.662363203671944 H 0.0 **** 0.06
7048 H 56.549340864670256 22.418968808311035 44.32017655926447 H 0.0 **** 0.06
7049 H 55.13586356832849 22.712375544435304 45.36214310605061 H 0.0 **** 0.06
7050 H 55.53178069632423 23.856186328537063 44.05737440587254 H 0.0 **** 0.06
7051 C 125.38622128563841 1.3812011714569508 234.15096333315546 C 0.0 **** -0.24
7052 H 124.93534859943983 0.6007823859831802 233.5375296249099 H 0.0 **** 0.06
7053 H 125.54546187842556 1.001826248050989 235.16077404754571 H 0.0 **** 0.06
7054 H 124.71998590460618 2.243136905318565 234.18752529654836 H 0.0 **** 0.06
7055 H 126.34114191138889 1.6775825174502472 233.71839281526223 H 0.0 **** 0.06
7056 C 109.18524784928135 145.8672999672139 91.031420217499 C 0.0 **** -0.24
7057 H 108.3077776126527 145.7506263791247 90.39574512571397 H 0.0 **** 0.06
7058 H 108.86943056169008 146.1495659312535 92.03602010832478 H 0.0 **** 0.06
7059 H 109.83022371627285 146.6445967865619 90.62050859228069 H 0.0 **** 0.06
7060 H 109.73137631465622 144.9254198640183 91.07294286172495 H 0.0 **** 0.06
7061 C 68.98597169840761 111.54799773351519 210.0681016480253 C 0.0 **** -0.24
7062 H 69.63705663299945 111.77712105339694 210.9127717011005 H 0.0 **** 0.06
7063 H 69.40820165790913 111.97563536127572 209.1589594778043 H 0.0 **** 0.06
7064 H 67.99856970422385 111.97367726990436 210.24625832434333 H 0.0 **** 0.06
7065 H 68.90216349750116 110.4669535039786 209.95717767788778 H 0.0 **** 0.06
7066 C 184.86650666515692 1.5659939904262075 221.15770569377307 C 0.0 **** -0.24
7067 H 184.27522056150752 2.4605967485064184 220.9656348592466 H 0.0 **** 0.06
7068 H 185.8227293944776 1.6447826837460013 220.64177741422833 H 0.0 **** 0.06
7069 H 184.327483963114 0.6909215477838302 220.79408594747827 H 0.0 **** 0.06
7070 H 185.03828345294784 1.4673217823748388 222.2300610966937 H 0.0 **** 0.06
7071 C 222.4573919881488 187.1705992353815 60.1407820612734 C 0.0 **** -0.24
7072 H 222.25358431772372 187.088575367553 59.07241503495058 H 0.0 **** 0.06
7073 H 223.45318273085556 187.58630401634798 60.28976490021074 H 0.0 **** 0.06
7074 H 222.40264358690274 186.18192580907356 60.5975752833738 H 0.0 **** 0.06
7075 H 221.71684574637231 187.82501830252295 60.6017284003984 H 0.0 **** 0.06
7076 C 143.91328354109547 78.16853324671453 100.64222970520225 C 0.0 **** -0.24
7077 H 143.84068791650944 78.46353146189276 99.59521561667552 H 0.0 **** 0.06
7078 H 144.31388217935051 77.15636249441101 100.70747293625604 H 0.0 **** 0.06
7079 H 142.9231718275182 78.19722207966018 101.0967066689445 H 0.0 **** 0.06
7080 H 144.57452985480214 78.85623369935482 101.16872183429152 H 0.0 **** 0.06
7081 C 48.332703399409326 246.36987076433644 233.95559204004164 C 0.0 **** -0.24
7082 H 47.43122813842362 246.235537365205 234.55342768705555 H 0.0 **** 0.06
7083 H 48.64834276253018 245.40614139597292 233.55385819467537 H 0.0 **** 0.06
7084 H 49.125872992570095 246.7801855163537 234.57984868659045 H 0.0 **** 0.06
7085 H 48.125793960931304 247.05516281096558 233.1338963181007 H 0.0 **** 0.06
7086 C 42.270630691622344 55.72917502604511 70.92472635295948 C 0.0 **** -0.24
7087 H 43.26345654938075 55.28583251058993 70.85789981809634 H 0.0 **** 0.06
7088 H 41.88613535964261 55.61015455929467 71.93776388367857 H 0.0 **** 0.06
7089 H 41.60219819689988 55.23130966163049 70.22175220322569 H 0.0 **** 0.06
7090 H 42.328610630509786 56.79019419991684 70.68055589068305 H 0.0 **** 0.06
7091 C 64.35552128952492 232.10974119701524 153.72688022678327 C 0.0 **** -0.24
7092 H 65.0311885098715 232.19391962405723 152.87559157374582 H 0.0 **** 0.06
7093 H 63.41000142157591 231.67602016595885 153.39877074521215 H 0.0 **** 0.06
7094 H 64.17527859805188 233.09944468936158 154.14621796172878 H 0.0 **** 0.06
7095 H 64.80510003609595 231.46989595186233 154.4853178107512 H 0.0 **** 0.06
7096 C 147.27023887235316 103.98903501372916 89.97707335639842 C 0.0 **** -0.24
7097 H 146.2656094722618 103.5835368600678 89.8619709074508 H 0.0 **** 0.06
7098 H 147.28897013939482 104.67742168268762 90.82172387489405 H 0.0 **** 0.06
7099 H 147.5535967512234 104.52081561061604 89.06831030345626 H 0.0 **** 0.06
7100 H 147.97219438855424 103.17379438656647 90.15513444568964 H 0.0 **** 0.06
7101 C 231.7408361799737 207.74305576033004 219.1854895954719 C 0.0 **** -0.24
7102 H 231.2635847958509 207.019451906335 218.5236057981756 H 0.0 **** 0.06
7103 H 232.52587452698862 208.26940625429455 218.64171433930272 H 0.0 **** 0.06
7104 H 232.17444860831517 207.22251271290082 220.0389969244114 H 0.0 **** 0.06
7105 H 230.99834636664528 208.459605348933 219.53583674779966 H 0.0 **** 0.06
7106 C 40.374231027063274 12.598846028075911 227.82004408663414 C 0.0 **** -0.24
7107 H 39.71625446253577 12.561380664148658 226.95054780827547 H 0.0 **** 0.06
7108 H 41.38191800436918 12.306639751046703 227.5250457579179 H 0.0 **** 0.06
7109 H 40.0051158303194 11.914283968655411 228.58343017688117 H 0.0 **** 0.06
7110 H 40.391990840606994 13.612723831763617 228.21866915877848 H 0.0 **** 0.06
7111 C 104.69497638255106 128.13766008574152 112.89330962129364 C 0.0 **** -0.24
7112 H 105.5937256128405 128.01384665640595 113.4972174136984 H 0.0 **** 0.06
7113 H 103.83398476350783 127.7554255216462 113.44226749349158 H 0.0 **** 0.06
7114 H 104.80622803680225 127.58647351960028 111.95979047135802 H 0.0 **** 0.06
7115 H 104.54752426547412 129.19532781934748 112.67550832432627 H 0.0 **** 0.06
7116 C 133.63280417944392 100.4877846684982 179.44779541135978 C 0.0 **** -0.24
7117 H 134.33654631331424 100.34077020643596 178.6279281445262 H 0.0 **** 0.06
7118 H 133.7374836755515 101.49927497923565 179.83950336075452 H 0.0 **** 0.06
7119 H 133.843396104703 99.76832769521155 180.23913306017812 H 0.0 **** 0.06
7120 H 132.6162649915912 100.34109275092209 179.08433685948972 H 0.0 **** 0.06
7121 C 18.047278633853892 246.38681438841388 122.35870293393825 C 0.0 **** -0.24
7122 H 18.381386363747296 246.5766537189341 123.37858068136282 H 0.0 **** 0.06
7123 H 18.914111974259797 246.26968650074838 121.70847098672752 H 0.0 **** 0.06
7124 H 17.442882454042945 247.22561972567405 122.01271964265266 H 0.0 **** 0.06
7125 H 17.4494691279707 245.4759425957141 122.33603277996167 H 0.0 **** 0.06
7126 C 219.50322010528927 67.50197728437297 204.35489387021232 C 0.0 **** -0.24
7127 H 218.47644171203936 67.4561090257173 204.71980456754812 H 0.0 **** 0.06
7128 H 219.84273531456734 66.49719283519357 204.10053936054567 H 0.0 **** 0.06
7129 H 220.14543199067987 67.91801677560335 205.1310411522208 H 0.0 **** 0.06
7130 H 219.54510221712823 68.13506817205632 203.46947059832132 H 0.0 **** 0.06
7131 C 125.34879407752672 151.89488679121934 135.86400648618164 C 0.0 **** -0.24
7132 H 125.09086524051054 151.25849041868992 135.01845404819525 H 0.0 **** 0.06
7133 H 124.64655911025119 151.71937296987193 136.67963049809637 H 0.0 **** 0.06
7134 H 125.29956393841033 152.94064524138935 135.5592717915773 H 0.0 **** 0.06
7135 H 126.36029594814963 151.66158570088436 136.19816235843834 H 0.0 **** 0.06
7136 C 64.31818361852388 107.73476062264487 54.87232951461618 C 0.0 **** -0.24
7137 H 65.14777262252093 107.12976021433994 55.23742697279641 H 0.0 **** 0.06
7138 H 64.34733385229006 108.71545293174785 55.34735522896321 H 0.0 **** 0.06
7139 H 63.375569901579155 107.24156401343137 55.11368417682408 H 0.0 **** 0.06
7140 H 64.40017917160375 107.85115937843545 53.79196817615116 H 0.0 **** 0.06
7141 C 49.48346949095722 143.77094750954788 96.94915224745014 C 0.0 **** -0.24
7142 H 49.30237794258298 143.63075906690062 95.88252408329268 H 0.0 **** 0.06
7143 H 50.556970710011825 143.8211839797724 97.13056061611326 H 0.0 **** 0.06
7144 H 49.05879399818585 142.93392692489127 97.50239435114955 H 0.0 **** 0.06
7145 H 49.01498105255794 144.69902065454568 97.27710253653083 H 0.0 **** 0.06
7146 C 226.00958720708167 212.0155888006057 192.3815896697568 C 0.0 **** -0.24
7147 H 226.7979961115544 212.57645690889657 191.8804161209287 H 0.0 **** 0.06
7148 H 225.08675739504866 212.0950007592944 191.80802237972932 H 0.0 **** 0.06
7149 H 225.85371271314875 212.42330019583213 193.38039602223841 H 0.0 **** 0.06
7150 H 226.30138358875837 210.96870727367303 192.45875507077676 H 0.0 **** 0.06
7151 C 245.08062917378993 183.43998121481363 218.68634736418474 C 0.0 **** -0.24
7152 H 244.8680871298509 183.0551948658521 217.68849069985785 H 0.0 **** 0.06
7153 H 245.96799641565428 184.07154363637855 218.64967516423724 H 0.0 **** 0.06
7154 H 245.25521958467965 182.60683095833494 219.36706125895793 H 0.0 **** 0.06
7155 H 244.23185674676137 184.025516571741 219.03795264027602 H 0.0 **** 0.06
7156 C 228.2082421349739 77.4305765120651 200.30277922371545 C 0.0 **** -0.24
7157 H 228.02917244444785 76.57645122276051 199.64885444518399 H 0.0 **** 0.06
7158 H 227.42824833936228 77.47572771613497 201.0631163995177 H 0.0 **** 0.06
7159 H 228.19625616586399 78.34721243142505 199.7147150450233 H 0.0 **** 0.06
7160 H 229.17973079177315 77.31980964705917 200.78483841476177 H 0.0 **** 0.06
7161 C 161.36103413486285 114.50491859008878 11.841424674654803 C 0.0 **** -0.24
7162 H 160.9216415127809 114.32204673162582 10.861209612248189 H 0.0 **** 0.06
7163 H 162.3600510321984 114.0684484225471 11.8775303210343 H 0.0 **** 0.06
7164 H 160.73693837560114 114.04939579232482 12.610258228184165 H 0.0 **** 0.06
7165 H 161.4268590817678 115.57878673813752 12.015616648483416 H 0.0 **** 0.06
7166 C 200.7844590805395 194.62107958069404 77.9700932097758 C 0.0 **** -0.24
7167 H 200.65294762215322 193.5397186426595 77.93907995209517 H 0.0 **** 0.06
7168 H 199.80741784738518 195.1039396230402 78.01600828900797 H 0.0 **** 0.06
7169 H 201.31027099948517 194.94928960041332 77.07318876496933 H 0.0 **** 0.06
7170 H 201.36576417107196 194.8909551952905 78.85122038787497 H 0.0 **** 0.06
7171 C 96.20557029752553 4.122156888074102 118.78666219935198 C 0.0 **** -0.24
7172 H 96.22060587615334 4.097689540960317 117.69742446534508 H 0.0 **** 0.06
7173 H 96.40844026208867 5.137118867326336 119.129651317857 H 0.0 **** 0.06
7174 H 96.9680308477752 3.4482113332528286 119.17537398630441 H 0.0 **** 0.06
7175 H 95.22512888903881 3.8069840871797282 119.14388246775465 H 0.0 **** 0.06
7176 C 95.63907214222371 150.11272855841568 101.36287416495847 C 0.0 **** -0.24
7177 H 95.34720980309203 151.07038731864463 100.93390024316707 H 0.0 **** 0.06
7178 H 95.66717853327978 149.35657877484783 100.57778492634782 H 0.0 **** 0.06
7179 H 94.91594092050312 149.81926535866657 102.12335634654556 H 0.0 **** 0.06
7180 H 96.62699961004074 150.20270649316777 101.81634508411034 H 0.0 **** 0.06
7181 C 14.831215204703042 90.40004678773994 132.07183173811845 C 0.0 **** -0.24
7182 H 15.471608173923798 89.68506366898697 132.58843366871275 H 0.0 **** 0.06
7183 H 14.515099762222903 91.17471162470451 132.77057774932933 H 0.0 **** 0.06
7184 H 13.955361104228288 89.88570042248918 131.6782927119379 H 0.0 **** 0.06
7185 H 15.385837248478182 90.85575514393483 131.250820249945 H 0.0 **** 0.06
7186 C 154.68661510823736 232.33931568752442 42.163423391096586 C 0.0 **** -0.24
7187 H 154.10334709265652 233.0935090088701 41.63595640957003 H 0.0 **** 0.06
7188 H 154.5992714408935 231.38479928746446 41.64472878764339 H 0.0 **** 0.06
7189 H 154.3117688057172 232.23624163374217 43.18113629069569 H 0.0 **** 0.06
7190 H 155.73274969663652 232.6435552983226 42.19095968498874 H 0.0 **** 0.06
7191 C 156.99990929111033 56.762310928502274 3.5015594443470377 C 0.0 **** -0.24
7192 H 156.46876697409576 57.71359389051534 3.4780194894984504 H 0.0 **** 0.06
7193 H 157.23078123160926 56.44993308620374 2.483090102462171 H 0.0 **** 0.06
7194 H 156.37382833556322 56.00858376162287 3.9802405228537054 H 0.0 **** 0.06
7195 H 157.92594288435288 56.87718097098963 4.066264890937788 H 0.0 **** 0.06
7196 C 9.496286245985715 113.36358056835462 145.48893442151686 C 0.0 **** -0.24
7197 H 9.25455788451184 112.56321254880413 144.78970913594216 H 0.0 **** 0.06
7198 H 8.949786424464136 113.20952860252243 146.42031325049695 H 0.0 **** 0.06
7199 H 9.211910787052688 114.3227199368257 145.0552572985765 H 0.0 **** 0.06
7200 H 10.567006065611238 113.35927567174866 145.69098663460775 H 0.0 **** 0.06
7201 C 98.6808735332693 10.479506226678296 85.58563730478119 C 0.0 **** -0.24
7202 H 99.7263317304097 10.267061448760359 85.36123376865902 H 0.0 **** 0.06
7203 H 98.62336556260382 11.206684630526553 86.39547492411302 H 0.0 **** 0.06
7204 H 98.17978379302895 9.559113945440203 85.88763350126837 H 0.0 **** 0.06
7205 H 98.19388829061347 10.883337400955185 84.69740403824284 H 0.0 **** 0.06
7206 C 97.50637160683067 174.74392030580395 28.911450263574324 C 0.0 **** -0.24
7207 H 98.11727492448446 174.74280018272725 28.008629986515388 H 0.0 **** 0.06
7208 H 97.54274919207128 173.75790706930997 29.37497495623475 H 0.0 **** 0.06
7209 H 96.4762582226495 174.98614307261272 28.652266728008897 H 0.0 **** 0.06
7210 H 97.89047466063809 175.48817103779032 29.608954571536202 H 0.0 **** 0.06
7211 C 18.305040630014247 55.413706237363186 108.09794169203707 C 0.0 **** -0.24
7212 H 17.81938381138164 54.46043996455214 108.30432828960062 H 0.0 **** 0.06
7213 H 18.16668970139736 55.67150894193489 107.04764917987268 H 0.0 **** 0.06
7214 H 19.370152095637167 55.334107705368325 108.31608662393393 H 0.0 **** 0.06
7215 H 17.862774322780723 56.18953827289235 108.72346686494717 H 0.0 **** 0.06
7216 C 115.97301947505215 166.59004077626764 25.971418146332212 C 0.0 **** -0.24
7217 H 115.62333384021937 165.7335310963023 26.54757844651573 H 0.0 **** 0.06
7218 H 116.249664208756 167.3969140162308 26.650832486404667 H 0.0 **** 0.06
7219 H 115.17864914080505 166.93033045192627 25.307426976288255 H 0.0 **** 0.06
7220 H 116.84139447037225 166.2995891384262 25.380009418297405 H 0.0 **** 0.06
7221 C 214.82770320134978 150.71175797524754 164.92833903651376 C 0.0 **** -0.24
7222 H 213.87035818131497 151.2311511896659 164.86872538598078 H 0.0 **** 0.06
7223 H 215.60881307986628 151.42081399029564 165.20233811125038 H 0.0 **** 0.06
7224 H 215.0615409606968 150.26940644638722 163.96059186681487 H 0.0 **** 0.06
7225 H 214.76810115546516 149.92702275168247 165.6820828843336 H 0.0 **** 0.06
7226 C 76.80604773071738 244.98711429677087 11.177909355692776 C 0.0 **** -0.24
7227 H 76.12866329075044 244.213788408884 10.813512626965434 H 0.0 **** 0.06
7228 H 77.82339277549036 244.59508790901742 11.2059620467804 H 0.0 **** 0.06
7229 H 76.50442233023242 245.28974860676146 12.180803250267019 H 0.0 **** 0.06
7230 H 76.76604138050544 245.84731186233785 10.510434862500887 H 0.0 **** 0.06
7231 C 135.03382468076617 239.651270946992 196.35594096864128 C 0.0 **** -0.24
7232 H 134.99513756355492 240.14737502529323 197.32541588508695 H 0.0 **** 0.06
7233 H 135.74090546376036 238.82165566190832 196.40093913567114 H 0.0 **** 0.06
7234 H 135.35779509757975 240.36305069606095 195.59707120330296 H 0.0 **** 0.06
7235 H 134.044164715785 239.27313840256153 196.10115577665903 H 0.0 **** 0.06
7236 C 125.86439911072918 145.29309370768516 121.69344474218178 C 0.0 **** -0.24
7237 H 125.38686776345111 145.1004053587417 120.733295497862 H 0.0 **** 0.06
7238 H 126.79842966542898 145.83152277669532 121.53292175494943 H 0.0 **** 0.06
7239 H 126.07259305446593 144.34589831804516 122.1922320279784 H 0.0 **** 0.06
7240 H 125.20103009261084 145.89345049197763 122.31553303201827 H 0.0 **** 0.06
7241 C 43.02731020766652 106.89056469513915 12.165116343698145 C 0.0 **** -0.24
7242 H 42.934448537307816 106.01855182618598 11.516426238625655 H 0.0 **** 0.06
7243 H 43.30605347671407 107.75844356956861 11.56871714539463 H 0.0 **** 0.06
7244 H 43.79394680902513 106.70276370387143 12.916536115605567 H 0.0 **** 0.06
7245 H 42.07360951629359 107.07831394609005 12.65850035262477 H 0.0 **** 0.06
7246 C 100.64176240294847 185.80903673105306 50.50712618384456 C 0.0 **** -0.24
7247 H 100.5369715598404 185.88953423549202 51.58892403768627 H 0.0 **** 0.06
7248 H 100.44202562035574 186.77865559002157 50.0504435149691 H 0.0 **** 0.06
7249 H 99.93164722103327 185.0749188517307 50.12667916378673 H 0.0 **** 0.06
7250 H 101.65610305973439 185.49439951669865 50.26222207599578 H 0.0 **** 0.06
7251 C 118.0680046406512 80.62737887415628 132.12207661544252 C 0.0 **** -0.24
7252 H 117.19677735105458 79.97641322233434 132.0409082009079 H 0.0 **** 0.06
7253 H 118.92345795320944 80.14972078654463 131.64445966624274 H 0.0 **** 0.06
7254 H 118.29138356144628 80.80615355045435 133.17410990725094 H 0.0 **** 0.06
7255 H 117.85825016153035 81.5765108762732 131.62789842953356 H 0.0 **** 0.06
7256 C 154.81436011631044 208.87216178013173 172.31839365077138 C 0.0 **** -0.24
7257 H 154.7471573344338 207.78430530162746 172.32001718341544 H 0.0 **** 0.06
7258 H 154.85966593327 209.23160987640804 171.2902428736515 H 0.0 **** 0.06
7259 H 155.7139100979523 209.1816135051056 172.850854008937 H 0.0 **** 0.06
7260 H 153.9379909683266 209.29108243471606 172.81129846390127 H 0.0 **** 0.06
7261 C 164.57892599088814 54.74960064020601 1.9324491570951778 C 0.0 **** -0.24
7262 H 163.8024293705442 54.73178176513542 1.1676864124658834 H 0.0 **** 0.06
7263 H 165.55072539005263 54.890426789180395 1.4601648311023467 H 0.0 **** 0.06
7264 H 164.57306874186563 53.8071034324374 2.478987595528423 H 0.0 **** 0.06
7265 H 164.387539482769 55.571828474991804 2.6238160541344655 H 0.0 **** 0.06
7266 C 115.9021422739711 22.491088610987504 237.2089031989492 C 0.0 **** -0.24
7267 H 116.68016795668382 22.89073011351745 237.8601099904796 H 0.0 **** 0.06
7268 H 114.9392419001542 22.546071351370088 237.71697833092765 H 0.0 **** 0.06
7269 H 116.12782126979712 21.45110111278653 236.96961554850162 H 0.0 **** 0.06
7270 H 115.86285889270025 23.07490042001696 236.29004023697996 H 0.0 **** 0.06
7271 C 155.1347322548389 111.94707769890854 186.52000624931128 C 0.0 **** -0.24
7272 H 155.35770011695212 111.8735850092335 187.58464690732148 H 0.0 **** 0.06
7273 H 155.76403717119084 111.24958426535218 185.96790137336438 H 0.0 **** 0.06
7274 H 155.33131479923003 112.96375585851246 186.1775366794006 H 0.0 **** 0.06
7275 H 154.08606424995085 111.70293402385445 186.35069337534213 H 0.0 **** 0.06
7276 C 154.52996833908915 102.56162714838388 242.6297336861553 C 0.0 **** -0.24
7277 H 155.12639769357676 103.445788299535 242.85278669414953 H 0.0 **** 0.06
7278 H 155.06694825068598 101.66990188465647 242.95233590665117 H 0.0 **** 0.06
7279 H 154.34675700612348 102.50773008304247 241.5563361417947 H 0.0 **** 0.06
7280 H 153.57764539462943 102.62373981448116 243.15723117833477 H 0.0 **** 0.06
7281 C 124.07558301496604 205.26948064677254 126.3595498634624 C 0.0 **** -0.24
7282 H 124.74397546784016 205.32929473205428 125.5000317526088 H 0.0 **** 0.06
7283 H 124.6309834098038 204.91502931393632 127.22739790025696 H 0.0 **** 0.06
7284 H 123.26341204701569 204.57641827618886 126.13917871647743 H 0.0 **** 0.06
7285 H 123.66384789196857 206.25682715339588 126.56829523934317 H 0.0 **** 0.06
7286 C 242.39535946057893 151.90094896436776 121.38729987022887 C 0.0 **** -0.24
7287 H 242.26564261222347 151.25405584531094 120.52008974949655 H 0.0 **** 0.06
7288 H 242.51337300511818 152.93301482121828 121.05672394542083 H 0.0 **** 0.06
7289 H 243.2829599408986 151.59359859749003 121.94093035639762 H 0.0 **** 0.06
7290 H 241.52025895036513 151.82322670071912 122.03299013822775 H 0.0 **** 0.06
7291 C 248.844003934929 212.009144276442 234.76878070354726 C 0.0 **** -0.24
7292 H 249.3918566041193 212.7812103743457 234.22806269268486 H 0.0 **** 0.06
7293 H 248.68574716755722 211.15139242640913 234.1149266445967 H 0.0 **** 0.06
7294 H 247.88133257695307 212.40536921920537 235.09004727358422 H 0.0 **** 0.06
7295 H 249.41977904504097 211.69983679076626 235.64099310278067 H 0.0 **** 0.06
7296 C 77.71163620573947 47.68565862654302 66.45368733328749 C 0.0 **** -0.24
7297 H 77.14819697984083 48.271527252496554 65.7265313843132 H 0.0 **** 0.06
7298 H 78.19615335374561 46.850100843738204 65.94923130250487 H 0.0 **** 0.06
7299 H 77.03341315927955 47.30642223454234 67.2178076269818 H 0.0 **** 0.06
7300 H 78.46800394662651 48.317954460990535 66.92016069889985 H 0.0 **** 0.06
7301 C 109.48461210473656 178.8349761842909 57.707468464491996 C 0.0 **** -0.24
7302 H 108.61777026791728 178.3974403363817 57.212419801161985 H 0.0 **** 0.06
7303 H 109.44876329927862 178.6059980382975 58.77262687645356 H 0.0 **** 0.06
7304 H 109.47544591695188 179.91616979173304 57.56746511183877 H 0.0 **** 0.06
7305 H 110.39641241639694 178.42094512941668 57.276602998645075 H 0.0 **** 0.06
7306 C 170.77966631574103 169.43931083136832 79.65378401405039 C 0.0 **** -0.24
7307 H 169.94934933405156 169.9582110613686 79.17613684522044 H 0.0 **** 0.06
7308 H 170.74252354573147 168.38029003691773 79.3949192650692 H 0.0 **** 0.06
7309 H 170.7057114216668 169.55244664818048 80.73523513488672 H 0.0 **** 0.06
7310 H 171.7218178170558 169.86524762796464 79.30730894596738 H 0.0 **** 0.06
7311 C 200.65319672719278 78.47805150742496 233.25942983429854 C 0.0 **** -0.24
7312 H 200.42823951029635 77.45179835627133 232.96654196531418 H 0.0 **** 0.06
7313 H 199.75547649043375 78.94544771275136 233.66334780499196 H 0.0 **** 0.06
7314 H 200.99359781920901 79.03669260717183 232.38727343076852 H 0.0 **** 0.06
7315 H 201.43623266979324 78.47536672567443 234.01755454150586 H 0.0 **** 0.06
7316 C 58.04334382163313 215.73937543017936 159.58628064217694 C 0.0 **** -0.24
7317 H 57.52651975716341 216.58005782990458 160.04992551190216 H 0.0 **** 0.06
7318 H 59.052951155645246 216.04335509278343 159.3075137543842 H 0.0 **** 0.06
7319 H 57.49830091878363 215.42520937797227 158.69593267731392 H 0.0 **** 0.06
7320 H 58.095320901039344 214.91096394141738 160.2925089012308 H 0.0 **** 0.06
7321 C 25.944200045502072 101.29823286798668 144.5106328098121 C 0.0 **** -0.24
7322 H 25.108443775345364 100.93054866091902 145.10629995989362 H 0.0 **** 0.06
7323 H 26.809097310817435 101.45510214293776 145.15583845787222 H 0.0 **** 0.06
7324 H 25.666259545877637 102.24169196837542 144.0392766942925 H 0.0 **** 0.06
7325 H 26.191363925756008 100.56740645776543 143.74125947128965 H 0.0 **** 0.06
7326 C 244.79964976653363 46.49610990889485 76.3262955273949 C 0.0 **** -0.24
7327 H 244.29820744101357 47.34057733101024 76.79726465531994 H 0.0 **** 0.06
7328 H 244.85787584294823 45.667892098041264 77.0327221361116 H 0.0 **** 0.06
7329 H 245.80580591546985 46.79132783304884 76.02736617508845 H 0.0 **** 0.06
7330 H 244.23694267159559 46.18416225299144 75.44651944627265 H 0.0 **** 0.06
7331 C 5.2620392035506285 189.00015366931882 48.14514691318247 C 0.0 **** -0.24
7332 H 4.467234690064174 188.2773651611491 47.95645366258158 H 0.0 **** 0.06
7333 H 6.1158373959607815 188.49245056283027 48.592837389046935 H 0.0 **** 0.06
7334 H 4.898353962702274 189.76943466839833 48.825992970905304 H 0.0 **** 0.06
7335 H 5.5645474553597865 189.46021307110766 47.20392234758576 H 0.0 **** 0.06
7336 C 221.0867465300396 11.043268988163746 123.6628144766689 C 0.0 **** -0.24
7337 H 221.7812344358539 10.431965521778352 123.08625295099199 H 0.0 **** 0.06
7338 H 220.09158536178919 10.972892573851738 123.22330681791499 H 0.0 **** 0.06
7339 H 221.4191965348266 12.080625297022465 123.6497592411969 H 0.0 **** 0.06
7340 H 221.05620227990977 10.684060933404211 124.69203223906501 H 0.0 **** 0.06
7341 C 220.0960172645837 57.5137313420087 197.8748480516654 C 0.0 **** -0.24
7342 H 220.72232719134922 58.022502995068436 198.607372348775 H 0.0 **** 0.06
7343 H 220.0585788168384 58.10225006553836 196.95710862120023 H 0.0 **** 0.06
7344 H 219.08843509170936 57.400007560186026 198.27453622197947 H 0.0 **** 0.06
7345 H 220.5154524399334 56.53104999316528 197.65954345851952 H 0.0 **** 0.06
7346 C 141.55088877607858 132.05859077997 40.544248096815124 C 0.0 **** -0.24
7347 H 142.1828974785333 131.24080972869953 40.88975021851215 H 0.0 **** 0.06
7348 H 140.97856755027675 132.4557328852651 41.38350321092115 H 0.0 **** 0.06
7349 H 140.8665647990399 131.69024449068363 39.779000235606716 H 0.0 **** 0.06
7350 H 142.1748898055169 132.84772510972073 40.123484143811865 H 0.0 **** 0.06
7351 C 70.57182845128025 208.34387779289267 153.68571698050548 C 0.0 **** -0.24
7352 H 71.54474158415164 208.1008908791088 153.25918449742878 H 0.0 **** 0.06
7353 H 69.88980125710768 207.50667355025087 153.53573852847424 H 0.0 **** 0.06
7354 H 70.17221790049993 209.23207548695464 153.1952082206058 H 0.0 **** 0.06
7355 H 70.68182864595414 208.53645937619902 154.75290106006972 H 0.0 **** 0.06
7356 C 164.56489141139429 78.94242255415452 185.91408303496274 C 0.0 **** -0.24
7357 H 164.41004889184677 78.44151733933114 186.86900885194393 H 0.0 **** 0.06
7358 H 163.87464279139064 78.53661277708241 185.1749471678305 H 0.0 **** 0.06
7359 H 165.59032469223519 78.78244228824067 185.581154411057 H 0.0 **** 0.06
7360 H 164.38484480325914 80.01154735327216 186.03132194680103 H 0.0 **** 0.06
7361 C 51.49579780413168 11.48603330524108 210.00703750267073 C 0.0 **** -0.24
7362 H 51.52420398560443 12.570969987331836 210.1090965825563 H 0.0 **** 0.06
7363 H 50.74597902017169 11.07713740932141 210.68458418769097 H 0.0 **** 0.06
7364 H 52.47388097504549 11.072639918133603 210.252377641502 H 0.0 **** 0.06
7365 H 51.238352365218105 11.224735511465298 208.98083534249258 H 0.0 **** 0.06
7366 C 100.30153449090588 32.91923172707408 168.79055211911106 C 0.0 **** -0.24
7367 H 99.25613100490943 32.77312586874854 169.06297495564957 H 0.0 **** 0.06
7368 H 100.57577944770387 33.961787914992996 168.94828244955804 H 0.0 **** 0.06
7369 H 100.44189768755598 32.66069343477935 167.74069655775511 H 0.0 **** 0.06
7370 H 100.93084822207365 32.279524852818085 169.40949065742763 H 0.0 **** 0.06
7371 C 196.10903018051735 79.434329757271 42.28843466230258 C 0.0 **** -0.24
7372 H 196.57117206000794 79.56788629797936 41.31032111937179 H 0.0 **** 0.06
7373 H 195.02489842701695 79.48809010412745 42.18768379164413 H 0.0 **** 0.06
7374 H 196.45095056956063 80.22011576835422 42.96167188399615 H 0.0 **** 0.06
7375 H 196.3895932817864 78.4619401000908 42.69177107093061 H 0.0 **** 0.06
7376 C 40.39981879439202 63.313240509477595 224.96017427230157 C 0.0 **** -0.24
7377 H 40.15302475924017 64.30020103599628 224.56802226226847 H 0.0 **** 0.06
7378 H 40.02441435714613 62.548124383030256 224.28069035793044 H 0.0 **** 0.06
7379 H 39.94045275859642 63.18754035284758 225.94089232043115 H 0.0 **** 0.06
7380 H 41.48140279212001 63.21974677680265 225.05207931154968 H 0.0 **** 0.06
7381 C 233.21797172506828 114.84264759507681 38.029252199610866 C 0.0 **** -0.24
7382 H 233.6113935253043 115.14705807045388 38.99839104660231 H 0.0 **** 0.06
7383 H 233.59532503631868 113.85158958881124 37.77812260871039 H 0.0 **** 0.06
7384 H 233.5361571051811 115.55650026594418 37.26836520830902 H 0.0 **** 0.06
7385 H 232.12899412405767 114.81782209814787 38.07154936213185 H 0.0 **** 0.06
7386 C 41.56465154467102 66.87285331823759 242.30961732809982 C 0.0 **** -0.24
7387 H 42.38623473945418 66.26248427944321 241.9347876880778 H 0.0 **** 0.06
7388 H 40.614903589796114 66.41585520161328 242.0291549838502 H 0.0 **** 0.06
7389 H 41.629289842677565 67.87260530796866 241.88029411941022 H 0.0 **** 0.06
7390 H 41.62806058889615 66.93893926254984 243.39585970996188 H 0.0 **** 0.06
7391 C 49.19624373487788 122.6474517355916 193.64488430908258 C 0.0 **** -0.24
7392 H 49.61137909125132 122.66560238733464 194.6530776281918 H 0.0 **** 0.06
7393 H 48.20387701882207 123.09855204994744 193.6531534523853 H 0.0 **** 0.06
7394 H 49.12476184377654 121.61527143654516 193.30128607994408 H 0.0 **** 0.06
7395 H 49.846705940299344 123.20957251505328 192.97471961392674 H 0.0 **** 0.06
7396 C 89.86266038473693 112.19384461822247 197.0120334559959 C 0.0 **** -0.24
7397 H 90.16264021945798 113.22698291311133 197.18464840974028 H 0.0 **** 0.06
7398 H 90.45178031063998 111.53340535767421 197.6479872758327 H 0.0 **** 0.06
7399 H 90.0314774608631 111.93690044127999 195.96625094774828 H 0.0 **** 0.06
7400 H 88.80438788931261 112.07840671770302 197.24836795520912 H 0.0 **** 0.06
7401 C 219.33882927910034 55.3932970289064 188.2486035980453 C 0.0 **** -0.24
7402 H 220.21969807628628 55.548642797185835 187.6261227404745 H 0.0 **** 0.06
7403 H 218.49377979564957 55.11322176661946 187.61790889481372 H 0.0 **** 0.06
7404 H 219.10525026473286 56.31364608221557 188.7829424639363 H 0.0 **** 0.06
7405 H 219.53747680318259 54.5960464452568 188.9658429240187 H 0.0 **** 0.06
7406 C 198.15892040750805 183.1578402103823 49.85827151662794 C 0.0 **** -0.24
7407 H 198.59543091848778 183.49845249014913 50.797859953239055 H 0.0 **** 0.06
7408 H 197.1570567936424 183.57473780206533 49.75228438160664 H 0.0 **** 0.06
7409 H 198.10288903493336 182.0693859573766 49.85764604455076 H 0.0 **** 0.06
7410 H 198.78122314214875 183.49026011130908 49.0277410358227 H 0.0 **** 0.06
7411 C 60.313962634327 114.88909774291315 99.73743054091642 C 0.0 **** -0.24
7412 H 61.14175738854166 115.14688663351839 100.39803806571399 H 0.0 **** 0.06
7413 H 59.73221485154781 114.08063491642358 100.18066743960034 H 0.0 **** 0.06
7414 H 60.70603898501187 114.56900401760274 98.77274732939216 H 0.0 **** 0.06
7415 H 59.67555148147491 115.76182897741293 99.59802119130535 H 0.0 **** 0.06
7416 C 59.216166306486 22.523358585143782 169.8914999159719 C 0.0 **** -0.24
7417 H 58.61104596583499 23.194155026180013 170.5029392797029 H 0.0 **** 0.06
7418 H 58.59371447387815 22.07811292805195 169.11619831199823 H 0.0 **** 0.06
7419 H 59.632026824068475 21.7360062684091 170.5207478283678 H 0.0 **** 0.06
7420 H 60.0268005200744 23.086317679582834 169.42902959571654 H 0.0 **** 0.06
7421 C 18.081426052823844 85.85561029605668 97.02390027074026 C 0.0 **** -0.24
7422 H 17.11845360020716 85.8237658458246 97.53360367056027 H 0.0 **** 0.06
7423 H 18.872289424045817 86.03534483933083 97.75227942546965 H 0.0 **** 0.06
7424 H 18.075650912572215 86.65997697042835 96.2871727182746 H 0.0 **** 0.06
7425 H 18.257933944208276 84.9044536601786 96.52159897876223 H 0.0 **** 0.06
7426 C 217.24836889961574 158.50356028039005 61.50497514369815 C 0.0 **** -0.24
7427 H 217.1165842714671 157.8047064464394 62.33185646117016 H 0.0 **** 0.06
7428 H 216.82506992706485 159.4704711578325 61.776853614962874 H 0.0 **** 0.06
7429 H 216.73863682440663 158.1190571549356 60.62099316609758 H 0.0 **** 0.06
7430 H 218.3107122448609 158.61722564634425 61.290591459314214 H 0.0 **** 0.06
7431 C 176.94342098995614 153.70100905624886 26.248257680852532 C 0.0 **** -0.24
7432 H 177.34916138175095 154.56454642030542 25.720156804876666 H 0.0 **** 0.06
7433 H 177.05705549443576 152.81089377066417 25.62977765430375 H 0.0 **** 0.06
7434 H 175.88590666501142 153.86702879166558 26.456350159677754 H 0.0 **** 0.06
7435 H 177.48119418836913 153.56454477461185 27.18676237499912 H 0.0 **** 0.06
7436 C 71.22060448762389 133.33491645172015 48.2728166159997 C 0.0 **** -0.24
7437 H 71.65259215412411 134.2351232137133 48.71051630211511 H 0.0 **** 0.06
7438 H 71.8101310469635 133.03470269451464 47.40687221865548 H 0.0 **** 0.06
7439 H 70.19529368838616 133.53829939440004 47.96267032856532 H 0.0 **** 0.06
7440 H 71.2245337789694 132.53427235479668 49.01192834793673 H 0.0 **** 0.06
7441 C 29.750789940118437 159.59264934271442 117.91912470300628 C 0.0 **** -0.24
7442 H 30.432627396144284 158.74291152258834 117.95601496940725 H 0.0 **** 0.06
7443 H 30.209787802030093 160.44826135197954 118.41345820562819 H 0.0 **** 0.06
7444 H 28.82086165554196 159.33495302510642 118.42564771231093 H 0.0 **** 0.06
7445 H 29.539848253153735 159.8433935983679 116.87857844669881 H 0.0 **** 0.06
7446 C 134.6793527371903 1.1011051766415676 165.495765568825 C 0.0 **** -0.24
7447 H 135.37552267693113 0.6691144717278519 164.77815773951653 H 0.0 **** 0.06
7448 H 134.35666383928069 2.081653542452358 165.14398814107014 H 0.0 **** 0.06
7449 H 135.17252373678792 1.2059275043255298 166.46257693712886 H 0.0 **** 0.06
7450 H 133.8118446190828 0.44882212844490255 165.59937090497806 H 0.0 **** 0.06
7451 C 93.72435465639958 160.43234181294883 79.60213377156589 C 0.0 **** -0.24
7452 H 92.71849423043506 160.8514720381593 79.62703811440278 H 0.0 **** 0.06
7453 H 94.37693684048386 161.01304277139408 80.2536830436656 H 0.0 **** 0.06
7454 H 94.10590468460066 160.46562728371038 78.58172051175174 H 0.0 **** 0.06
7455 H 93.69447812305708 159.39767718744096 79.94435311463053 H 0.0 **** 0.06
7456 C 105.12181160827072 236.6047178830135 225.20075768657895 C 0.0 **** -0.24
7457 H 104.38025906334124 237.2589548259638 225.6585648609504 H 0.0 **** 0.06
7458 H 104.77237007533398 235.5723173335577 225.24437312804088 H 0.0 **** 0.06
7459 H 106.06520362563475 236.69123163906437 225.74146875320798 H 0.0 **** 0.06
7460 H 105.27022495204463 236.8954413044259 224.16117030075728 H 0.0 **** 0.06
7461 C 125.26763030673527 174.61224600132323 140.96961856376143 C 0.0 **** -0.24
7462 H 125.74218348101658 173.63055633233438 140.98425610572053 H 0.0 **** 0.06
7463 H 125.83920482658266 175.2813713609635 140.32505017495296 H 0.0 **** 0.06
7464 H 125.2411924947503 175.0170342397272 141.9812455165624 H 0.0 **** 0.06
7465 H 124.25155749023122 174.51906832733786 140.58800814965957 H 0.0 **** 0.06
7466 C 15.567920287823469 31.166460314372316 230.9899327151976 C 0.0 **** -0.24
7467 H 14.603486518487031 30.753840890176562 231.28671594913757 H 0.0 **** 0.06
7468 H 16.297540607209186 30.98930026378396 231.7810250544644 H 0.0 **** 0.06
7469 H 15.467163913071346 32.23901615974184 230.82221662783883 H 0.0 **** 0.06
7470 H 15.901698752101908 30.68399758466805 230.07236026522156 H 0.0 **** 0.06
7471 C 9.96498257025371 169.2005395878456 10.836539324093309 C 0.0 **** -0.24
7472 H 9.85603309009224 168.1536175692682 10.554316253429505 H 0.0 **** 0.06
7473 H 9.299456366860056 169.42369601869729 11.670242296334067 H 0.0 **** 0.06
7474 H 9.708842281197178 169.8336826217063 9.986664847187711 H 0.0 **** 0.06
7475 H 10.996689953139438 169.3912432144677 11.134038203995686 H 0.0 **** 0.06
7476 C 39.48127995134777 120.3942285726059 185.0192301167014 C 0.0 **** -0.24
7477 H 40.54315907470263 120.3355679841334 185.25869876691573 H 0.0 **** 0.06
7478 H 39.10339192676933 119.39604928332321 184.79803943826965 H 0.0 **** 0.06
7479 H 39.340551936615 121.0375255626164 184.1505839411295 H 0.0 **** 0.06
7480 H 38.939840516317275 120.80836355924424 185.87016732148055 H 0.0 **** 0.06
7481 C 240.61939952489772 176.86240793936693 240.98701129794347 C 0.0 **** -0.24
7482 H 240.78637740540339 176.06431089090205 240.26405759827458 H 0.0 **** 0.06
7483 H 240.55113576157385 176.43685833623124 241.98767315539146 H 0.0 **** 0.06
7484 H 239.69045930654636 177.38034433869464 240.7470289389522 H 0.0 **** 0.06
7485 H 241.4493797178061 177.56822489932762 240.94685070942728 H 0.0 **** 0.06
7486 C 81.4827437748954 27.84733629484569 187.4859962977325 C 0.0 **** -0.24
7487 H 82.36611638516521 27.622156206591427 188.0843309345636 H 0.0 **** 0.06
7488 H 81.75429144484275 28.535642286370916 186.68475768938478 H 0.0 **** 0.06
7489 H 80.72347990968444 28.306224121012548 188.11809984980684 H 0.0 **** 0.06
7490 H 81.09119584425946 26.925606769664597 187.05659734401453 H 0.0 **** 0.06
7491 C 122.08784663462222 48.46271526895069 237.5212276669116 C 0.0 **** -0.24
7492 H 122.33732227020062 49.29652030562795 238.17766093827817 H 0.0 **** 0.06
7493 H 121.12410940113023 48.046766995031874 237.81329981138936 H 0.0 **** 0.06
7494 H 122.85591056592321 47.69362962747523 237.6026257133305 H 0.0 **** 0.06
7495 H 122.03470461857398 48.81553317177361 236.49112668853604 H 0.0 **** 0.06
7496 C 223.9783796339057 62.037814352292 172.68929588032807 C 0.0 **** -0.24
7497 H 224.33923015410858 62.4426825523756 171.74350456241504 H 0.0 **** 0.06
7498 H 224.79112326116098 61.51725659287311 173.19586274156936 H 0.0 **** 0.06
7499 H 223.1629224714944 61.34059500895435 172.4981065289423 H 0.0 **** 0.06
7500 H 223.61943726971126 62.85259573523888 173.3187903240726 H 0.0 **** 0.06
7501 C 30.052707013873302 94.06865555493428 132.44884838221623 C 0.0 **** -0.24
7502 H 30.040265690248617 93.10167119712375 132.9506670983677 H 0.0 **** 0.06
7503 H 30.14479241240977 94.86136391595923 133.19105744930314 H 0.0 **** 0.06
7504 H 29.126400633484508 94.20024663111641 131.88968664659322 H 0.0 **** 0.06
7505 H 30.90032426679882 94.11154931516799 131.76419321636158 H 0.0 **** 0.06
7506 C 194.0064841289584 243.1401255903204 101.42514203694597 C 0.0 **** -0.24
7507 H 194.79920694948387 243.54738260530442 102.0536321593523 H 0.0 **** 0.06
7508 H 194.3700383156318 243.03794165896974 100.40200354218453 H 0.0 **** 0.06
7509 H 193.1491117615054 243.8121325877786 101.44129061718829 H 0.0 **** 0.06
7510 H 193.70951676943218 242.16271918316392 101.80470977350328 H 0.0 **** 0.06
7511 C 153.0764202447812 67.99396372279628 212.34252416985308 C 0.0 **** -0.24
7512 H 152.56266525580685 67.13199344346879 212.76705992666172 H 0.0 **** 0.06
7513 H 154.0877593874962 67.70801041072676 212.05283223929757 H 0.0 **** 0.06
7514 H 153.12220548799897 68.7910575562903 213.0845387927273 H 0.0 **** 0.06
7515 H 152.53163821958785 68.34482656296487 211.46572408602583 H 0.0 **** 0.06
7516 C 186.9926786238109 137.7937266974142 205.40746297198683 C 0.0 **** -0.24
7517 H 187.56515010399144 137.29341125823345 204.62518332043445 H 0.0 **** 0.06
7518 H 186.86852218265568 138.84569553754386 205.14954571555407 H 0.0 **** 0.06
7519 H 187.52623854785526 137.711957478461 206.35461669496019 H 0.0 **** 0.06
7520 H 186.01390250516215 137.32316532616153 205.4991137867838 H 0.0 **** 0.06
7521 C 45.06994428279603 202.88291268021484 27.783649068728067 C 0.0 **** -0.24
7522 H 46.03223922722067 202.42421979960167 28.010123893726856 H 0.0 **** 0.06
7523 H 45.10070884424813 203.94041512317156 28.044876341541155 H 0.0 **** 0.06
7524 H 44.28677126667448 202.38905268940323 28.360090669733793 H 0.0 **** 0.06
7525 H 44.85872238476988 202.77749763841751 26.71949891569507 H 0.0 **** 0.06
7526 C 52.461182426008264 116.19237984923498 3.4661033015199507 C 0.0 **** -0.24
7527 H 52.269693118499475 115.95035258694017 2.420348920355849 H 0.0 **** 0.06
7528 H 53.47557079645179 115.8928667687565 3.7276844705355927 H 0.0 **** 0.06
7529 H 51.749564950387565 115.66217232047455 4.098127116654297 H 0.0 **** 0.06
7530 H 52.34971280085895 117.26651747469265 3.6153797463450417 H 0.0 **** 0.06
7531 C 27.220015994894354 183.6230963297133 97.96020988857711 C 0.0 **** -0.24
7532 H 27.08148619998137 184.2376332787563 97.07074577903424 H 0.0 **** 0.06
7533 H 26.307352992529673 183.06017677787034 98.15823362580045 H 0.0 **** 0.06
7534 H 27.44366432467831 184.26415088855856 98.81349064865648 H 0.0 **** 0.06
7535 H 28.04611499494048 182.93162828715617 97.79904865847277 H 0.0 **** 0.06
7536 C 51.2221864534298 78.85944986118162 63.21844621108008 C 0.0 **** -0.24
7537 H 50.252686906263705 78.52917396985552 63.589998391237884 H 0.0 **** 0.06
7538 H 51.08365103407782 79.70933844257124 62.54945225360217 H 0.0 **** 0.06
7539 H 51.7016846137974 78.04519923491247 62.676605842147325 H 0.0 **** 0.06
7540 H 51.849660445349585 79.15704538207851 64.05807937881363 H 0.0 **** 0.06
7541 C 193.85294484385366 138.93315631599256 193.6901635659619 C 0.0 **** -0.24
7542 H 193.40835022845096 138.27973425655682 194.44131722307435 H 0.0 **** 0.06
7543 H 193.74939041849342 138.47869060405478 192.70551746002377 H 0.0 **** 0.06
7544 H 194.909568856924 139.07789735110973 193.91577451156726 H 0.0 **** 0.06
7545 H 193.34379831485074 139.8966828264207 193.7015671296262 H 0.0 **** 0.06
7546 C 170.57855005988063 134.0645769828406 110.19967878725402 C 0.0 **** -0.24
7547 H 170.7816927123878 135.08701377235343 110.51986881456281 H 0.0 **** 0.06
7548 H 169.5176974618856 133.84783603907076 110.33330407862334 H 0.0 **** 0.06
7549 H 171.16966521032757 133.37151004735793 110.79830945056221 H 0.0 **** 0.06
7550 H 170.8422856712939 133.95425490628855 109.14794254011267 H 0.0 **** 0.06
7551 C 36.80903495061294 246.1500349322598 204.49850935701082 C 0.0 **** -0.24
7552 H 37.395823113550776 245.44621351775208 205.08726789837345 H 0.0 **** 0.06
7553 H 35.757589879943595 245.86410905742756 204.5321579771338 H 0.0 **** 0.06
7554 H 37.156563812098696 246.1389991002418 203.4656650000797 H 0.0 **** 0.06
7555 H 36.92657354512623 247.15304233457425 204.9098868092148 H 0.0 **** 0.06
7556 C 187.245539909036 64.14828603249853 11.113605855787327 C 0.0 **** -0.24
7557 H 187.58466910797947 65.09995018310676 10.704387942913286 H 0.0 **** 0.06
7558 H 186.6098527252179 64.33204928018137 11.979581282141126 H 0.0 **** 0.06
7559 H 188.10840828188915 63.55487577004533 11.415304375297069 H 0.0 **** 0.06
7560 H 186.68029702366587 63.6079531945837 10.355303503108246 H 0.0 **** 0.06
7561 C 143.52008815102775 226.66165313442167 55.52450876408224 C 0.0 **** -0.24
7562 H 143.4450077316046 226.7341500982178 56.60875674041296 H 0.0 **** 0.06
7563 H 144.54536526421657 226.87312337924578 55.21641174624352 H 0.0 **** 0.06
7564 H 142.8455220504922 227.38355116355683 55.06402925127799 H 0.0 **** 0.06
7565 H 143.24646704764052 225.6552375202637 55.208025477847116 H 0.0 **** 0.06
7566 C 80.29239137871414 116.41972483228508 147.57426389392353 C 0.0 **** -0.24
7567 H 79.65919722730033 117.02601906760759 146.92579720628342 H 0.0 **** 0.06
7568 H 80.18027830114033 116.75263964910442 148.60617278183352 H 0.0 **** 0.06
7569 H 81.33260419418056 116.52720841530825 147.26869207594743 H 0.0 **** 0.06
7570 H 79.99622713044707 115.37416355542095 147.49532775469308 H 0.0 **** 0.06
7571 C 201.80187788328652 210.29268357719138 162.43867916332871 C 0.0 **** -0.24
7572 H 202.211949677861 210.74668954428637 163.3407214421645 H 0.0 **** 0.06
7573 H 202.04885468818145 210.91099667251262 161.57560330102925 H 0.0 **** 0.06
7574 H 200.71933970741787 210.21388680767103 162.53280527449968 H 0.0 **** 0.06
7575 H 202.22928182512305 209.29809489109255 162.30737495561735 H 0.0 **** 0.06
7576 C 194.9863035195038 164.7329002060297 41.00862810603823 C 0.0 **** -0.24
7577 H 195.10510941066417 165.1280958331699 40.00022831605665 H 0.0 **** 0.06
7578 H 193.92425193242946 164.65023101519787 41.243363739730825 H 0.0 **** 0.06
7579 H 195.46496920800496 165.40499864829442 41.72083622967014 H 0.0 **** 0.06
7580 H 195.449544500771 163.74840545623508 41.069648139890404 H 0.0 **** 0.06
7581 C 69.08962335076316 57.766172186139414 74.54520044231907 C 0.0 **** -0.24
7582 H 68.72126828777121 56.74230888339693 74.4820256637021 H 0.0 **** 0.06
7583 H 68.35414836181425 58.44446351195654 74.11268918619439 H 0.0 **** 0.06
7584 H 70.02808745635079 57.848303965288125 73.99626504618351 H 0.0 **** 0.06
7585 H 69.2563501525099 58.02762223255951 75.59025480344584 H 0.0 **** 0.06
7586 C 80.00423294066795 12.651259895429419 46.68480741960117 C 0.0 **** -0.24
7587 H 79.4804066099559 13.214893580219368 45.912952115094 H 0.0 **** 0.06
7588 H 79.54235055212368 11.669030571604935 46.79328691494263 H 0.0 **** 0.06
7589 H 79.94358904351728 13.188591831162583 47.631161093722525 H 0.0 **** 0.06
7590 H 81.04983647077833 12.5312157473236 46.40097607727051 H 0.0 **** 0.06
7591 C 131.40442439497602 28.739559834860273 186.53547028690753 C 0.0 **** -0.24
7592 H 131.8260971233134 27.873599152544188 186.02407143391895 H 0.0 **** 0.06
7593 H 131.61055546347092 28.665510276758454 187.60347366681216 H 0.0 **** 0.06
7594 H 130.3269511749975 28.76797917979755 186.37320701333547 H 0.0 **** 0.06
7595 H 131.8555487922784 29.6494563221749 186.1410191251527 H 0.0 **** 0.06
7596 C 47.1167443473376 140.02313246048828 99.88412326066236 C 0.0 **** -0.24
7597 H 47.18796776274816 138.95421238602012 100.08477885322495 H 0.0 **** 0.06
7598 H 46.337860261218566 140.45846410009648 100.51049337249896 H 0.0 **** 0.06
7599 H 46.86988051433937 140.18023525461774 98.83546053987973 H 0.0 **** 0.06
7600 H 48.07137048114342 140.49858932711066 100.10857654812551 H 0.0 **** 0.06
7601 C 67.88008445762915 21.782023122018387 106.90944152446093 C 0.0 **** -0.24
7602 H 67.1290518821132 21.157547526399725 106.42467675785329 H 0.0 **** 0.06
7603 H 68.2190294107038 21.298696135481777 107.82553753919112 H 0.0 **** 0.06
7604 H 67.44445437505306 22.751628445129455 107.14950716573577 H 0.0 **** 0.06
7605 H 68.72563710416469 21.92023045357726 106.23622460808173 H 0.0 **** 0.06
7606 C 98.01742651388659 112.96702541428564 36.03069972655962 C 0.0 **** -0.24
7607 H 98.81386503878335 112.28147063781026 35.74485033757114 H 0.0 **** 0.06
7608 H 97.06155345330737 112.44103407610712 36.01322407976474 H 0.0 **** 0.06
7609 H 97.9855661329583 113.80094068527112 35.32921643384961 H 0.0 **** 0.06
7610 H 98.20602295889532 113.34544836930198 37.03520657781448 H 0.0 **** 0.06
7611 C 118.41397504322637 235.73776978666706 39.1575195534496 C 0.0 **** -0.24
7612 H 117.7710029393769 236.2458735617767 38.43907192626526 H 0.0 **** 0.06
7613 H 118.96844898864137 236.4782387081347 39.735921671787025 H 0.0 **** 0.06
7614 H 119.11418697411614 235.09377618706384 38.62510987258068 H 0.0 **** 0.06
7615 H 117.80346690467033 235.1349802186325 39.82881539356309 H 0.0 **** 0.06
7616 C 239.33991139599232 100.9442772486108 35.324996118056504 C 0.0 **** -0.24
7617 H 239.36611019459275 99.86382173243857 35.465149840058004 H 0.0 **** 0.06
7618 H 239.44574374427305 101.43822333237003 36.29063753442695 H 0.0 **** 0.06
7619 H 238.38966642298453 101.22871125375772 34.87271925577049 H 0.0 **** 0.06
7620 H 240.15771481023148 101.24638100945657 34.67012477923538 H 0.0 **** 0.06
7621 C 119.74767111893243 82.16110715086532 228.48207767693597 C 0.0 **** -0.24
7622 H 119.05402934535644 82.98188359688936 228.66715251053864 H 0.0 **** 0.06
7623 H 119.18514275890459 81.25984712218931 228.23305398444558 H 0.0 **** 0.06
7624 H 120.34506837127287 81.98190831578484 229.37477070814793 H 0.0 **** 0.06
7625 H 120.40359076378923 82.42022616290276 227.65097941192968 H 0.0 **** 0.06
7626 C 198.43832302061648 152.44135622261055 193.95531394985773 C 0.0 **** -0.24
7627 H 199.28909319166155 153.0787585552395 193.71417301012224 H 0.0 **** 0.06
7628 H 197.78939253585415 152.95547011016512 194.66484316909794 H 0.0 **** 0.06
7629 H 198.7951159845254 151.51096028015806 194.3962308727074 H 0.0 **** 0.06
7630 H 197.88039068165455 152.22093495908004 193.0449983204628 H 0.0 **** 0.06
7631 C 44.25204762797509 159.96189767541122 139.08568085847273 C 0.0 **** -0.24
7632 H 44.0402869361798 159.2668082188712 138.27378023842488 H 0.0 **** 0.06
7633 H 43.33812369988843 160.48773505193745 139.36293648300133 H 0.0 **** 0.06
7634 H 45.00236856868926 160.68271994038773 138.76065267764048 H 0.0 **** 0.06
7635 H 44.62924859307381 159.40924244069234 139.9474628579731 H 0.0 **** 0.06
7636 C 38.99766235241927 3.2404642895098448 211.10649552939185 C 0.0 **** -0.24
7637 H 39.16973065423241 2.179224443660374 210.92931469054392 H 0.0 **** 0.06
7638 H 38.65815285336748 3.712485599927888 210.18512169598463 H 0.0 **** 0.06
7639 H 39.92619049116587 3.7088344660055412 211.4338278498504 H 0.0 **** 0.06
7640 H 38.2383927001641 3.360902365266128 211.87895447981876 H 0.0 **** 0.06
7641 C 184.25342949988664 85.96351859090873 111.6139853385003 C 0.0 **** -0.24
7642 H 184.72720863197884 85.14653056932849 111.07053573865701 H 0.0 **** 0.06
7643 H 183.1740507289225 85.80994056520831 111.63276928331598 H 0.0 **** 0.06
7644 H 184.47758026620812 86.9081687172135 111.11852076682385 H 0.0 **** 0.06
7645 H 184.6353139562445 85.99029572431459 112.63514929600709 H 0.0 **** 0.06
7646 C 167.09460388140815 78.12198556988321 63.357164540697 C 0.0 **** -0.24
7647 H 168.1802540935384 78.1013479499646 63.44704371087434 H 0.0 **** 0.06
7648 H 166.65062046395502 77.57525922008622 64.19000162414855 H 0.0 **** 0.06
7649 H 166.79879110980437 77.65516814360282 62.417406663226274 H 0.0 **** 0.06
7650 H 166.7484579243756 79.15486916602495 63.37468627866781 H 0.0 **** 0.06
7651 C 226.32095122020922 73.42798145130465 106.39416917861988 C 0.0 **** -0.24
7652 H 227.1531353015191 73.39975934157715 107.09816189482703 H 0.0 **** 0.06
7653 H 226.63474439431144 72.9974818923881 105.4438920978433 H 0.0 **** 0.06
7654 H 226.0105442097729 74.46116677536187 106.2413289544007 H 0.0 **** 0.06
7655 H 225.48626239226564 72.85435259144683 106.79668881482834 H 0.0 **** 0.06
7656 C 151.9640165054083 62.91346500060865 213.67691032202202 C 0.0 **** -0.24
7657 H 152.21202530863394 63.35769469674645 214.64120912719758 H 0.0 **** 0.06
7658 H 150.93561253404744 62.55093240429446 213.69826379867723 H 0.0 **** 0.06
7659 H 152.63840967000849 62.080996975588334 213.47605112654125 H 0.0 **** 0.06
7660 H 152.06920126691054 63.663868025861774 212.89390519653324 H 0.0 **** 0.06
7661 C 230.0980548046234 230.93234929522293 93.81169286448716 C 0.0 **** -0.24
7662 H 229.04105345223738 231.18610416756593 93.89087097396444 H 0.0 **** 0.06
7663 H 230.32334675376887 230.63364923836605 92.78699856813034 H 0.0 **** 0.06
7664 H 230.32553680312395 230.10926388832928 94.48940366293598 H 0.0 **** 0.06
7665 H 230.70072934752096 231.80042707916817 94.0778900111292 H 0.0 **** 0.06
7666 C 219.73776185362652 201.61643165257505 245.16744763411248 C 0.0 **** -0.24
7667 H 219.87101382540433 202.51450163347607 245.77069285069697 H 0.0 **** 0.06
7668 H 220.39948221524332 200.83129129084796 245.5342695963895 H 0.0 **** 0.06
7669 H 219.9798164933761 201.8389708054139 244.12782921668804 H 0.0 **** 0.06
7670 H 218.7030254770072 201.28165916544864 245.23648078644496 H 0.0 **** 0.06
7671 C 188.93310445932727 235.47648546276383 7.094727335351706 C 0.0 **** -0.24
7672 H 189.38616938949545 235.99854805799023 6.250817741110424 H 0.0 **** 0.06
7673 H 188.1093054244819 236.07113336625605 7.488546561307871 H 0.0 **** 0.06
7674 H 189.68105103478584 235.32886131538743 7.873524226016656 H 0.0 **** 0.06
7675 H 188.55825780611016 234.50795794599668 6.76254363215331 H 0.0 **** 0.06
7676 C 46.42871855384382 94.06866670620252 7.726039966805473 C 0.0 **** -0.24
7677 H 46.96883244170155 93.65683563980349 8.577867248947342 H 0.0 **** 0.06
7678 H 47.10678000615141 94.67362390197437 7.124187803971694 H 0.0 **** 0.06
7679 H 45.60685658899351 94.68912331468098 8.082714990156688 H 0.0 **** 0.06
7680 H 46.03243400789407 93.25410978907601 7.119165874721688 H 0.0 **** 0.06
7681 C 28.789431347824376 71.52485042437908 141.83780473238144 C 0.0 **** -0.24
7682 H 27.7037335002087 71.46384595708125 141.76457082631026 H 0.0 **** 0.06
7683 H 29.172184101006536 70.6237640977694 142.31725893584786 H 0.0 **** 0.06
7684 H 29.064577494292934 72.39753788070101 142.42886205316327 H 0.0 **** 0.06
7685 H 29.215526170447987 71.61370308493201 140.8381202907245 H 0.0 **** 0.06
7686 C 62.20739794102428 7.267815134540427 76.9067204824126 C 0.0 **** -0.24
7687 H 62.904082198499395 7.0176351056244215 77.70714447804318 H 0.0 **** 0.06
7688 H 62.72451739903906 7.85355931341681 76.14556096605344 H 0.0 **** 0.06
7689 H 61.380447403015836 7.849301729426912 77.31431184238988 H 0.0 **** 0.06
7690 H 61.82219769786275 6.351171942657132 76.4613143870734 H 0.0 **** 0.06
7691 C 50.93221851138806 237.86979819088742 184.10434934044605 C 0.0 **** -0.24
7692 H 50.57813793952485 238.82993634938418 184.48041082440145 H 0.0 **** 0.06
7693 H 51.74226551871993 237.50761369919113 184.73812123780363 H 0.0 **** 0.06
7694 H 51.2953986790274 237.99149769326135 183.08375786090943 H 0.0 **** 0.06
7695 H 50.113716847490096 237.15140283833082 184.1151518261231 H 0.0 **** 0.06
7696 C 223.81722156176187 244.6576998999435 34.007353067935384 C 0.0 **** -0.24
7697 H 224.79430689947733 244.73941001340873 33.53139795732696 H 0.0 **** 0.06
7698 H 223.46900089055256 243.62592306777535 33.94728215385172 H 0.0 **** 0.06
7699 H 223.108968522122 245.31012523280572 33.49630474406317 H 0.0 **** 0.06
7700 H 223.89572717054529 244.95521390039787 35.052376916864745 H 0.0 **** 0.06
7701 C 80.90636887900445 42.86304785957962 2.245781148088412 C 0.0 **** -0.24
7702 H 81.01458935041757 43.33273005927914 1.2686836506567545 H 0.0 **** 0.06
7703 H 79.8478153199245 42.735601444834586 2.4729492482208286 H 0.0 **** 0.06
7704 H 81.36661920205071 43.49457438209353 3.006026809491914 H 0.0 **** 0.06
7705 H 81.39644267694015 41.8890561917769 2.2376891506325762 H 0.0 **** 0.06
7706 C 34.87771106694362 84.79948770434686 242.559079651587 C 0.0 **** -0.24
7707 H 35.3559464371983 84.24308216728107 243.36412645854983 H 0.0 **** 0.06
7708 H 34.43835865143873 84.1013816785898 241.84631110293236 H 0.0 **** 0.06
7709 H 35.61989298811045 85.41789275435355 242.0539046694684 H 0.0 **** 0.06
7710 H 34.09549426909487 85.4372159448647 242.97299770972637 H 0.0 **** 0.06
7711 C 138.61513080758684 196.26071986651363 103.274602482051 C 0.0 **** -0.24
7712 H 139.3843154612418 196.39249673257316 102.51412080061067 H 0.0 **** 0.06
7713 H 138.26474582226533 197.23678710423582 103.60992572426443 H 0.0 **** 0.06
7714 H 139.03190492543015 195.71348142238645 104.12117085260385 H 0.0 **** 0.06
7715 H 137.78068846583832 195.69923758589968 102.85416794726586 H 0.0 **** 0.06
7716 C 89.95007931279528 31.15306353954375 73.84407517564728 C 0.0 **** -0.24
7717 H 90.12184109003462 31.889051309446103 74.62906272746287 H 0.0 **** 0.06
7718 H 88.90459070150382 30.844277968441446 73.85769899474903 H 0.0 **** 0.06
7719 H 90.5874154474619 30.284623559819494 74.01510510593909 H 0.0 **** 0.06
7720 H 90.18746573641496 31.59246999067122 72.87572027361787 H 0.0 **** 0.06
7721 C 6.395143384813679 137.77809565032024 209.52814195273427 C 0.0 **** -0.24
7722 H 6.949155472266199 137.3883145269993 210.3815104792908 H 0.0 **** 0.06
7723 H 5.647744444193876 137.04815482955155 209.2158923750955 H 0.0 **** 0.06
7724 H 7.083881147567098 137.9686691897171 208.7050650489185 H 0.0 **** 0.06
7725 H 5.8997924752276845 138.70724405501295 209.81009990763235 H 0.0 **** 0.06
7726 C 184.67612812979485 88.7974566422948 195.05219186377036 C 0.0 **** -0.24
7727 H 184.71805278600618 89.55062101862248 194.26576239555465 H 0.0 **** 0.06
7728 H 183.99002283807778 89.12573080253011 195.8333840167706 H 0.0 **** 0.06
7729 H 185.6701866553555 88.65865689555224 195.47608670615446 H 0.0 **** 0.06
7730 H 184.32562756281757 87.85408774994104 194.63249547028894 H 0.0 **** 0.06
7731 C 206.90305704387922 244.4507337120486 35.80518750682077 C 0.0 **** -0.24
7732 H 207.27495464791556 245.07389834710494 36.61729314024615 H 0.0 **** 0.06
7733 H 206.7317498820929 245.06858604274817 34.92343418108899 H 0.0 **** 0.06
7734 H 205.96726760954041 243.98049847471785 36.106739362787124 H 0.0 **** 0.06
7735 H 207.6382927939763 243.68036822466968 35.57160244415948 H 0.0 **** 0.06
7736 C 29.746833535733586 90.85523063409798 175.2173211235583 C 0.0 **** -0.24
7737 H 28.87479453189718 90.28041475953168 175.528902980682 H 0.0 **** 0.06
7738 H 30.10419473536747 91.4546921907951 176.05424428504918 H 0.0 **** 0.06
7739 H 29.472851114748025 91.51076484470386 174.39034826647685 H 0.0 **** 0.06
7740 H 30.533952560538893 90.17314849860301 174.895867906906 H 0.0 **** 0.06
7741 C 42.52671681974523 94.46412370663828 243.16203989917204 C 0.0 **** -0.24
7742 H 42.748044243087676 93.58425335687281 243.7663733427298 H 0.0 **** 0.06
7743 H 43.359237839425774 95.16659140582874 243.22449368465604 H 0.0 **** 0.06
7744 H 41.619941502869295 94.94188529706983 243.53389197054088 H 0.0 **** 0.06
7745 H 42.38118615660528 94.16500205681388 242.12370053241716 H 0.0 **** 0.06
7746 C 25.908943998776294 102.82252645218261 83.01537431601687 C 0.0 **** -0.24
7747 H 25.215472297239188 101.98271852929966 82.96096631116879 H 0.0 **** 0.06
7748 H 25.4165639515669 103.67069243151028 83.49080036415691 H 0.0 **** 0.06
7749 H 26.222496687018662 103.1002029036664 82.00989828324558 H 0.0 **** 0.06
7750 H 26.78179095279245 102.53385780503538 83.6011594117144 H 0.0 **** 0.06
7751 C 105.21184538217437 151.41192434128004 233.7549410317558 C 0.0 **** -0.24
7752 H 104.49492315955936 152.17033030508156 233.44023562862466 H 0.0 **** 0.06
7753 H 105.15933470244653 150.55970434448156 233.0767550077944 H 0.0 **** 0.06
7754 H 104.97521087048605 151.08718117524353 234.76772706254107 H 0.0 **** 0.06
7755 H 106.21693518506623 151.83181439839842 233.7327512497071 H 0.0 **** 0.06
7756 C 117.4763067858718 200.9322894615783 36.11920472475187 C 0.0 **** -0.24
7757 H 118.09266008419965 200.06919527769722 36.37459193931966 H 0.0 **** 0.06
7758 H 116.50090616292081 200.83483817858848 36.59539107157549 H 0.0 **** 0.06
7759 H 117.35090271482082 200.98133094419507 35.03835491830063 H 0.0 **** 0.06
7760 H 117.96357150558376 201.8421038171485 36.471169935792005 H 0.0 **** 0.06
7761 C 44.02518932134066 188.1697991621892 41.61039601598853 C 0.0 **** -0.24
7762 H 43.11417166842679 187.58721247531693 41.74515191283602 H 0.0 **** 0.06
7763 H 44.47231899232062 188.37616326022618 42.58302980604667 H 0.0 **** 0.06
7764 H 43.78585366516447 189.11005433349268 41.11365541399307 H 0.0 **** 0.06
7765 H 44.72927394248765 187.60550687737202 40.99930958380487 H 0.0 **** 0.06
7766 C 17.790953368354707 36.268399948715 25.287553800181655 C 0.0 **** -0.24
7767 H 18.716519622561776 36.7717511295548 25.568397662001843 H 0.0 **** 0.06
7768 H 17.94761046333369 35.190202982187714 25.296004567308586 H 0.0 **** 0.06
7769 H 17.494819432053163 36.58559316953907 24.2865069761651 H 0.0 **** 0.06
7770 H 17.00661688215129 36.528982123239345 25.997774730541806 H 0.0 **** 0.06
7771 C 122.70759626730134 206.3832912540031 209.63349168428718 C 0.0 **** -0.24
7772 H 123.49603275265417 207.00580955864345 209.2094628570004 H 0.0 **** 0.06
7773 H 122.64746091229262 206.55645141149756 210.7081622719693 H 0.0 **** 0.06
7774 H 122.93270123637748 205.3342298357204 209.4455490141572 H 0.0 **** 0.06
7775 H 121.75481969056236 206.63953411747553 209.17014088939058 H 0.0 **** 0.06
7776 C 45.78581970529561 126.37908783894866 17.02077516165724 C 0.0 **** -0.24
7777 H 45.61521341826733 125.66884037184235 16.21213210498317 H 0.0 **** 0.06
7778 H 46.75340378328323 126.17927742209449 17.48174959005172 H 0.0 **** 0.06
7779 H 44.997953757763554 126.27472192851326 17.767940867397854 H 0.0 **** 0.06
7780 H 45.77504179415857 127.39314398913231 16.621576555857075 H 0.0 **** 0.06
7781 C 93.82908449734475 132.90457688925673 39.56045957760175 C 0.0 **** -0.24
7782 H 92.76259784129508 132.86112263913165 39.77640051476368 H 0.0 **** 0.06
7783 H 94.1819126004923 131.91421649887567 39.271627096891294 H 0.0 **** 0.06
7784 H 94.36665818239533 133.23629741894067 40.449494225452185 H 0.0 **** 0.06
7785 H 94.00677506691932 133.60682763340722 38.74549851683838 H 0.0 **** 0.06
7786 C 193.88627306341544 243.94893038228912 109.21573852207723 C 0.0 **** -0.24
7787 H 193.97307546748465 243.1478273029249 108.4819785040473 H 0.0 **** 0.06
7788 H 193.14331554209429 244.67256802211836 108.87763753897639 H 0.0 **** 0.06
7789 H 194.85152830545644 244.44386383856903 109.32743798875066 H 0.0 **** 0.06
7790 H 193.57802253175515 243.532550868156 110.17485440707506 H 0.0 **** 0.06
7791 C 54.17761533778125 211.64534875250166 30.451209445641496 C 0.0 **** -0.24
7792 H 53.868107928487916 210.83387555799195 31.108581464265527 H 0.0 **** 0.06
7793 H 54.718171711733646 211.23595599533263 29.59779632987818 H 0.0 **** 0.06
7794 H 54.82630425679508 212.32884834488533 30.997978639317253 H 0.0 **** 0.06
7795 H 53.296856684494514 212.1835435140145 30.099960005997204 H 0.0 **** 0.06
7796 C 65.5370798734991 100.6286619630267 206.8576352208773 C 0.0 **** -0.24
7797 H 64.91783448602948 100.68901414392039 207.75191388054316 H 0.0 **** 0.06
7798 H 65.90368800756721 101.62398523891747 206.6021540212725 H 0.0 **** 0.06
7799 H 64.94478215094915 100.2365435103265 206.0314729569264 H 0.0 **** 0.06
7800 H 66.38227139035459 99.96708458672617 207.04487633340764 H 0.0 **** 0.06
7801 C 227.03345681580652 17.614242132582007 235.88297574612503 C 0.0 **** -0.24
7802 H 227.1461964890592 17.8069754661266 236.9498746155274 H 0.0 **** 0.06
7803 H 227.64956832340357 16.75934355239835 235.60137210115806 H 0.0 **** 0.06
7804 H 227.34873386658015 18.4922673145783 235.31990850060197 H 0.0 **** 0.06
7805 H 225.98761802142644 17.39653978801502 235.66291100794638 H 0.0 **** 0.06
7806 C 153.86523141951415 212.4085395187202 164.7239468190439 C 0.0 **** -0.24
7807 H 154.6471748897656 212.1058083913785 165.4198260006524 H 0.0 **** 0.06
7808 H 152.91188446457963 211.98769111081913 165.0437604705902 H 0.0 **** 0.06
7809 H 154.10702446837362 212.04336964837577 163.7251547140544 H 0.0 **** 0.06
7810 H 153.79480406229092 213.49579055702407 164.7061780491848 H 0.0 **** 0.06
7811 C 26.999965456636716 112.334684226733 59.7843537683587 C 0.0 **** -0.24
7812 H 26.85923020564283 112.62424478771757 58.742427738839524 H 0.0 **** 0.06
7813 H 27.789498623408292 112.94339272427567 60.22631861259089 H 0.0 **** 0.06
7814 H 27.282267746260203 111.28278596437067 59.83392227867358 H 0.0 **** 0.06
7815 H 26.071835233569885 112.48827645634319 60.33270243637668 H 0.0 **** 0.06
7816 C 215.09716736388313 143.46280608977432 237.95807957373992 C 0.0 **** -0.24
7817 H 214.27530323152678 143.79220457058798 238.5946057458945 H 0.0 **** 0.06
7818 H 215.00931740584687 143.9334392618395 236.97955039280663 H 0.0 **** 0.06
7819 H 215.0567650441172 142.37922158690264 237.84623660956058 H 0.0 **** 0.06
7820 H 216.0457482326314 143.7454599783591 238.41521706873044 H 0.0 **** 0.06
7821 C 121.45653079409317 33.71219588775297 10.535099519363555 C 0.0 **** -0.24
7822 H 120.90876071192335 33.2955207749997 9.68982183886493 H 0.0 **** 0.06
7823 H 121.2424945690608 33.12790896551944 11.430011724902656 H 0.0 **** 0.06
7824 H 121.14788229762891 34.74564175341669 10.692812289502143 H 0.0 **** 0.06
7825 H 122.52531739658232 33.68053500479158 10.326158511439147 H 0.0 **** 0.06
7826 C 123.71170849336124 140.1986343969761 163.25767765766653 C 0.0 **** -0.24
7827 H 124.48325182648858 139.55650122130544 162.8341845316972 H 0.0 **** 0.06
7828 H 123.4975215249408 141.01446270038846 162.56628724385948 H 0.0 **** 0.06
7829 H 124.05979557646631 140.60755574368577 164.20608067398962 H 0.0 **** 0.06
7830 H 122.80516273710185 139.61598611360267 163.4250435758084 H 0.0 **** 0.06
7831 C 196.5993810857115 110.59892239443178 3.682884491242845 C 0.0 **** -0.24
7832 H 196.14015698619733 110.3766887521586 4.645499675018868 H 0.0 **** 0.06
7833 H 196.3903572182698 109.7881816938301 2.98508071759386 H 0.0 **** 0.06
7834 H 197.6773621357849 110.70159199279959 3.8092347292729585 H 0.0 **** 0.06
7835 H 196.18966740439015 111.53044452635143 3.2910033912577035 H 0.0 **** 0.06
7836 C 246.47595752445238 228.0714484193269 68.50935218262467 C 0.0 **** -0.24
7837 H 245.83540716268243 227.3984038491772 69.08020577160565 H 0.0 **** 0.06
7838 H 246.03420591796996 228.24859309879946 67.52896815296077 H 0.0 **** 0.06
7839 H 247.46067350558167 227.62074027740138 68.38868665661062 H 0.0 **** 0.06
7840 H 246.572805664591 229.01840300038137 69.0416303440017 H 0.0 **** 0.06
7841 C 21.347028795977238 242.31594970838628 184.73374548780663 C 0.0 **** -0.24
7842 H 21.98722605531367 241.52488268208526 184.34429332078435 H 0.0 **** 0.06
7843 H 20.601322313266678 242.5809378816803 183.98410578754329 H 0.0 **** 0.06
7844 H 21.95289189496637 243.19067891409304 184.96969312813292 H 0.0 **** 0.06
7845 H 20.84736583049559 241.966619952587 185.63664260273936 H 0.0 **** 0.06
7846 C 226.44089640272816 2.4829382114751013 227.34920255522243 C 0.0 **** -0.24
7847 H 225.88567470560912 3.289092785718992 227.82826438232289 H 0.0 **** 0.06
7848 H 226.69539877534308 1.7266564908121893 228.0920134828909 H 0.0 **** 0.06
7849 H 227.35526014864908 2.882521482728606 226.9103236187598 H 0.0 **** 0.06
7850 H 225.82877651122706 2.0344736430767227 226.56784967652385 H 0.0 **** 0.06
7851 C 196.83049318644976 232.71343996613535 198.34936870589402 C 0.0 **** -0.24
7852 H 197.6195943088889 232.40941461706234 197.661933203013 H 0.0 **** 0.06
7853 H 196.37270262574444 233.63559078186717 197.9915541683273 H 0.0 **** 0.06
7854 H 197.25429959524627 232.8775831548896 199.33973111602177 H 0.0 **** 0.06
7855 H 196.07455169469927 231.92928419810096 198.40338511902002 H 0.0 **** 0.06
7856 C 242.950038737179 43.918122308977246 54.091119918148905 C 0.0 **** -0.24
7857 H 243.75410926141478 44.59595441901382 53.80774071274058 H 0.0 **** 0.06
7858 H 242.67300521847153 43.30472259445337 53.23293182551832 H 0.0 **** 0.06
7859 H 242.08605767595697 44.49550926840966 54.41903238635345 H 0.0 **** 0.06
7860 H 243.28664803357393 43.27464546409246 54.9037067113444 H 0.0 **** 0.06
7861 C 82.48398222660208 114.9755105180738 194.89330250257098 C 0.0 **** -0.24
7862 H 83.36949904835683 115.34342965436565 195.4125144498189 H 0.0 **** 0.06
7863 H 82.78420675953456 114.28036194527118 194.10921369307047 H 0.0 **** 0.06
7864 H 81.94850183840765 115.81553220322604 194.45033309481613 H 0.0 **** 0.06
7865 H 81.83419447226058 114.46429493755267 195.60384882540623 H 0.0 **** 0.06
7866 C 180.44526663203817 211.22418074328246 187.3526406507742 C 0.0 **** -0.24
7867 H 179.75207806567647 210.94483282337833 188.1460301637424 H 0.0 **** 0.06
7868 H 179.88443491685044 211.60836453398824 186.4998539343918 H 0.0 **** 0.06
7869 H 181.01859932014605 210.34928509669473 187.04648904906279 H 0.0 **** 0.06
7870 H 181.12462923240125 211.99458743535283 187.71854168013056 H 0.0 **** 0.06
7871 C 140.44558145127542 16.87301199003278 53.808838642259644 C 0.0 **** -0.24
7872 H 140.13370344895972 17.84369747640264 53.422351417691715 H 0.0 **** 0.06
7873 H 140.23857174590935 16.102910271980278 53.06615708951833 H 0.0 **** 0.06
7874 H 139.89446175286207 16.653047777151045 54.72420108995786 H 0.0 **** 0.06
7875 H 141.5135729963403 16.894362182519416 54.02439325804346 H 0.0 **** 0.06
7876 C 4.3330173735584765 60.604966538699415 143.31134084859244 C 0.0 **** -0.24
7877 H 4.785037403568111 60.77205155809304 142.33386396707394 H 0.0 **** 0.06
7878 H 4.980895540849076 59.9602038507806 143.9057780047837 H 0.0 **** 0.06
7879 H 3.3612756064401594 60.127107359387026 143.1847465468154 H 0.0 **** 0.06
7880 H 4.20387749785894 61.560150326296906 143.82002187892047 H 0.0 **** 0.06
7881 C 199.95633953371237 50.91671947251618 26.359139119377716 C 0.0 **** -0.24
7882 H 200.95762802765904 51.3355820955795 26.25787695636464 H 0.0 **** 0.06
7883 H 199.3130226571223 51.63361907962795 26.870184055859596 H 0.0 **** 0.06
7884 H 200.00639337374014 49.99461567647401 26.938263261587423 H 0.0 **** 0.06
7885 H 199.55074923736765 50.70309054367934 25.370495221899063 H 0.0 **** 0.06
7886 C 22.683073260013884 36.45521306717862 127.89710763721467 C 0.0 **** -0.24
7887 H 22.41593562206765 37.246609645357324 127.19570581056996 H 0.0 **** 0.06
7888 H 22.954077976007653 35.55560796175952 127.34309980116146 H 0.0 **** 0.06
7889 H 21.832253964161367 36.24211207610492 128.5434280315023 H 0.0 **** 0.06
7890 H 23.529219561619954 36.778328555845505 128.5035343735075 H 0.0 **** 0.06
7891 C 213.7199136973333 107.2070178656356 73.40735905815652 C 0.0 **** -0.24
7892 H 213.54607761801265 106.72951126295638 72.44255491197859 H 0.0 **** 0.06
7893 H 213.49445725246963 108.27032684297478 73.33260633960262 H 0.0 **** 0.06
7894 H 214.76263203594652 107.07470959296069 73.69478304691765 H 0.0 **** 0.06
7895 H 213.0760249795734 106.75039907166047 74.1593432134222 H 0.0 **** 0.06
7896 C 120.90708096722344 64.41861043598581 109.24873369882437 C 0.0 **** -0.24
7897 H 120.17672916426676 63.88892308468445 109.85984180411197 H 0.0 **** 0.06
7898 H 120.40595375770067 64.86549210122627 108.38958710213933 H 0.0 **** 0.06
7899 H 121.66775759709466 63.71922805799642 108.90299403466915 H 0.0 **** 0.06
7900 H 121.37746959082855 65.20299115796482 109.84236658434395 H 0.0 **** 0.06
7901 C 145.50369110651596 11.501999383422486 227.94011039662257 C 0.0 **** -0.24
7902 H 144.96549525326563 12.448455476140538 227.8895272365428 H 0.0 **** 0.06
7903 H 145.29177245424486 11.014179998949743 228.8912167502703 H 0.0 **** 0.06
7904 H 146.57434146347546 11.687032232327596 227.8564610008488 H 0.0 **** 0.06
7905 H 145.18071201014715 10.85738227926575 227.12177618911954 H 0.0 **** 0.06
7906 C 159.91238086084402 122.7206774945648 198.73611230121128 C 0.0 **** -0.24
7907 H 159.2886320298864 123.30946947344623 198.06396130261135 H 0.0 **** 0.06
7908 H 160.46177696851348 123.38971865564957 199.3994926028197 H 0.0 **** 0.06
7909 H 160.61665061658707 122.12812635314526 198.15313475959653 H 0.0 **** 0.06
7910 H 159.28315055370723 122.05724929309957 199.32930688111344 H 0.0 **** 0.06
7911 C 47.620968365868464 205.51983902881577 116.64544623410148 C 0.0 **** -0.24
7912 H 47.57685801151793 206.58445164746908 116.87301777993068 H 0.0 **** 0.06
7913 H 46.646226476790346 205.06854871861526 116.8285196260509 H 0.0 **** 0.06
7914 H 48.367963370716424 205.04317528522984 117.28063810507075 H 0.0 **** 0.06
7915 H 47.894828580584644 205.38275159984207 115.59871264730646 H 0.0 **** 0.06
7916 C 179.12088308715462 96.32680936808416 96.41136546597613 C 0.0 **** -0.24
7917 H 179.0375019703542 97.36066303516469 96.74613516484095 H 0.0 **** 0.06
7918 H 179.80332621429443 95.78609245089112 97.06736025707414 H 0.0 **** 0.06
7919 H 179.50345347955187 96.30514650401523 95.39080572404316 H 0.0 **** 0.06
7920 H 178.13794156018218 95.8558530900454 96.44102545746892 H 0.0 **** 0.06
7921 C 83.05836268918083 243.2571998320396 94.52270446765996 C 0.0 **** -0.24
7922 H 83.90705345575745 243.09390265781605 95.18670038786033 H 0.0 **** 0.06
7923 H 82.15635042603398 242.8505450542421 94.98004169373937 H 0.0 **** 0.06
7924 H 83.24043305112238 242.75854293553027 93.57029265565231 H 0.0 **** 0.06
7925 H 82.92992838461393 244.32662289843242 94.35329516770227 H 0.0 **** 0.06
7926 C 43.28874018644173 39.77545842449783 200.30088432479926 C 0.0 **** -0.24
7927 H 43.86476275345248 40.36627706931242 199.58889633522483 H 0.0 **** 0.06
7928 H 42.43796109443268 40.358552579297026 200.65332398156357 H 0.0 **** 0.06
7929 H 43.92194140501471 39.50665543593274 201.1460983415759 H 0.0 **** 0.06
7930 H 42.9302036927961 38.86818123954848 199.81314640755414 H 0.0 **** 0.06
7931 C 170.1680273503452 59.03174364103296 200.36558063925767 C 0.0 **** -0.24
7932 H 171.16003843904792 58.98924422229061 200.8166952377265 H 0.0 **** 0.06
7933 H 169.819442611258 58.018561992006 200.16183518777035 H 0.0 **** 0.06
7934 H 170.21610453530042 59.5942807395825 199.43396046332722 H 0.0 **** 0.06
7935 H 169.47826893436206 59.52285002759277 201.05150585917377 H 0.0 **** 0.06
7936 C 189.87395321432285 36.6773821299162 20.293182438574974 C 0.0 **** -0.24
7937 H 190.7326931025753 36.8324721166359 20.94580596144276 H 0.0 **** 0.06
7938 H 189.97445748035068 37.3009178461152 19.405827011132374 H 0.0 **** 0.06
7939 H 188.9613344128295 36.945911277996885 20.825258174424775 H 0.0 **** 0.06
7940 H 189.82729258324167 35.62862450723921 19.99837434506827 H 0.0 **** 0.06
7941 C 24.778787303247825 36.29285336181759 79.18950355034622 C 0.0 **** -0.24
7942 H 24.37618282031022 36.52634738424746 80.1753741023073 H 0.0 **** 0.06
7943 H 25.14252715930995 37.20684236951688 78.7202882719634 H 0.0 **** 0.06
7944 H 23.994716463234397 35.85517414459136 78.57192571225656 H 0.0 **** 0.06
7945 H 25.60054958607114 35.58392574932404 79.2913512857626 H 0.0 **** 0.06
7946 C 42.49809805293654 50.33866622431026 247.50722940941566 C 0.0 **** -0.24
7947 H 42.150575524771796 49.55115685276036 246.83873285105193 H 0.0 **** 0.06
7948 H 42.25069455747317 50.07652719272258 248.53628344840052 H 0.0 **** 0.06
7949 H 42.01128960205875 51.2784569391263 247.24472507946635 H 0.0 **** 0.06
7950 H 43.577760250919454 50.44851720372745 247.40833621488176 H 0.0 **** 0.06
7951 C 221.53554653267236 131.75338924078636 146.32289592854724 C 0.0 **** -0.24
7952 H 222.3883978470078 131.5050317948884 145.69087552737628 H 0.0 **** 0.06
7953 H 221.60800800779398 132.7946824811465 146.6357509822322 H 0.0 **** 0.06
7954 H 221.53502661388092 131.10817560559647 147.201022717192 H 0.0 **** 0.06
7955 H 220.61230967798616 131.60450226831767 145.76282901320215 H 0.0 **** 0.06
7956 C 107.67501730746227 160.84254412482534 99.17768602006959 C 0.0 **** -0.24
7957 H 107.15997880104177 160.76053308512522 100.13507261908279 H 0.0 **** 0.06
7958 H 107.00391142590348 161.28194296686516 98.4394725513267 H 0.0 **** 0.06
7959 H 107.98150691683472 159.850111435287 98.84496532738078 H 0.0 **** 0.06
7960 H 108.55579294202636 161.47465863682754 99.29162941137369 H 0.0 **** 0.06
7961 C 82.49299911483962 219.62209056510116 127.38443187590846 C 0.0 **** -0.24
7962 H 82.75909810314047 219.78610825100552 128.42820679760976 H 0.0 **** 0.06
7963 H 82.36040341859979 218.55421009232185 127.20732665839563 H 0.0 **** 0.06
7964 H 83.28844509754006 220.00104456982444 126.74309879899556 H 0.0 **** 0.06
7965 H 81.56404288967008 220.14503601128337 127.1594764342997 H 0.0 **** 0.06
7966 C 247.00196946008833 58.26189569393932 111.78130092548199 C 0.0 **** -0.24
7967 H 246.18475896888333 58.87536660289919 111.4021927298036 H 0.0 **** 0.06
7968 H 247.86306431432467 58.354948794448546 111.11837532161658 H 0.0 **** 0.06
7969 H 246.6851549462989 57.22069997577731 111.82259972117262 H 0.0 **** 0.06
7970 H 247.27543396989068 58.598920871587524 112.78161676026005 H 0.0 **** 0.06
7971 C 76.84017208850406 98.77804730405816 6.095509885862853 C 0.0 **** -0.24
7972 H 76.96354100340201 97.70148637991835 5.971953138506564 H 0.0 **** 0.06
7973 H 77.78751722084263 99.21824296509376 6.406640965411313 H 0.0 **** 0.06
7974 H 76.08249711589173 98.97063467387005 6.8562879927089 H 0.0 **** 0.06
7975 H 76.5266407118745 99.21832340373561 5.150072113993076 H 0.0 **** 0.06
7976 C 165.0268709673043 7.6199368005514 13.97920493215561 C 0.0 **** -0.24
7977 H 164.90329678544484 7.736078307842973 15.055962630776222 H 0.0 **** 0.06
7978 H 165.69788641203218 6.7847519047427625 13.778396486195106 H 0.0 **** 0.06
7979 H 165.449788485638 8.535139263549055 13.562553024130267 H 0.0 **** 0.06
7980 H 164.05718023470914 7.426355265449388 13.520861568501203 H 0.0 **** 0.06
7981 C 92.02175717652153 148.23172861914904 112.33282083008896 C 0.0 **** -0.24
7982 H 91.78586426532405 149.2402888069364 112.67127384627858 H 0.0 **** 0.06
7983 H 92.5601119785855 147.70164687806655 113.11881639545715 H 0.0 **** 0.06
7984 H 92.6422549007491 148.28448210911853 111.43854335244129 H 0.0 **** 0.06
7985 H 91.0980536637594 147.69937281201618 112.10307815461758 H 0.0 **** 0.06
7986 C 119.7384813024756 45.919363805070745 128.15104582933074 C 0.0 **** -0.24
7987 H 120.29687380412852 45.45458473078048 128.96281413523326 H 0.0 **** 0.06
7988 H 118.8156006589929 45.36340571881877 127.979128653956 H 0.0 **** 0.06
7989 H 120.34165717459715 45.91089573398196 127.24369269016304 H 0.0 **** 0.06
7990 H 119.49740274719758 46.948036494235 128.4185681562331 H 0.0 **** 0.06
7991 C 0.11334767375753074 186.08335968430242 10.450333581045953 C 0.0 **** -0.24
7992 H -0.49856020502275555 185.18226547358992 10.502223368292988 H 0.0 **** 0.06
7993 H 0.8242366387282658 185.99267054431422 9.628673715672932 H 0.0 **** 0.06
7994 H 0.6547979743533858 186.20869428675044 11.387611219369234 H 0.0 **** 0.06
7995 H -0.5281106704047858 186.9478239515098 10.282911122060767 H 0.0 **** 0.06
7996 C 68.53119677407034 78.23792328439671 73.3792616081927 C 0.0 **** -0.24
7997 H 68.39813779356325 77.82866622998105 72.37751286426774 H 0.0 **** 0.06
7998 H 69.59305553236669 78.24922404616663 73.62793981993667 H 0.0 **** 0.06
7999 H 67.99582140620942 77.61900014047544 74.09888020232216 H 0.0 **** 0.06
8000 H 68.14004618490176 79.25462667714802 73.40992089977283 H 0.0 **** 0.06
8001 C 71.70887944271303 29.371569562279447 114.58961203692448 C 0.0 **** -0.24
8002 H 71.85948684699301 30.44449317667234 114.70964910622948 H 0.0 **** 0.06
8003 H 71.72620030983302 28.891559780063375 115.56883733280478 H 0.0 **** 0.06
8004 H 72.50436622699357 28.960330794668394 113.9691347936062 H 0.0 **** 0.06
8005 H 70.74510221426408 29.190917563144225 114.11411663918878 H 0.0 **** 0.06
8006 C 112.49267843031907 172.31451951532668 28.967252898650898 C 0.0 **** -0.24
8007 H 113.0895435757229 171.8110568701285 29.72839345166676 H 0.0 **** 0.06
8008 H 112.06830092267126 171.573916412801 28.289693793902188 H 0.0 **** 0.06
8009 H 113.12642684845079 173.00097717904413 28.40623116764283 H 0.0 **** 0.06
8010 H 111.68881611789553 172.8716565190458 29.4475468740266 H 0.0 **** 0.06
8011 C 241.5632859943546 1.809419897137289 139.8292075219392 C 0.0 **** -0.24
8012 H 241.25794161026835 0.7663841733807146 139.75300487069558 H 0.0 **** 0.06
8013 H 242.52708533690506 1.9427450418349537 139.3392016144558 H 0.0 **** 0.06
8014 H 241.64734700626855 2.0866804833626986 140.8798348960811 H 0.0 **** 0.06
8015 H 240.81871879715908 2.4426096466515332 139.34528396129184 H 0.0 **** 0.06
8016 C 74.31620413666596 165.06215071394803 228.18349537167865 C 0.0 **** -0.24
8017 H 75.10593214892717 164.5517868788305 228.7348881465844 H 0.0 **** 0.06
8018 H 74.70640538544151 165.40661471262428 227.22594792884865 H 0.0 **** 0.06
8019 H 73.96332590919005 165.9159769950824 228.7613484680454 H 0.0 **** 0.06
8020 H 73.48913614269625 164.37281890622674 228.01280921608276 H 0.0 **** 0.06
8021 C 171.1628745107193 69.96802442384475 135.31333704303734 C 0.0 **** -0.24
8022 H 171.21693063444567 69.74739930645839 134.24681368579868 H 0.0 **** 0.06
8023 H 171.3574864703367 69.05917878465311 135.88342770766562 H 0.0 **** 0.06
8024 H 170.16861232525622 70.34305734768563 135.5569465379855 H 0.0 **** 0.06
8025 H 171.90762946549992 70.72233864412988 135.56668992121004 H 0.0 **** 0.06
8026 C 156.2996052344076 240.97978068794134 117.028053844434 C 0.0 **** -0.24
8027 H 155.89635524810302 241.95024722757506 117.3171242715504 H 0.0 **** 0.06
8028 H 155.76019660869733 240.60659597746428 116.15698893066565 H 0.0 **** 0.06
8029 H 156.18572807643642 240.2778400769718 117.85442358324562 H 0.0 **** 0.06
8030 H 157.3569137033312 241.08441701457122 116.78431297532427 H 0.0 **** 0.06
8031 C 152.61000641997825 212.26508859217142 44.85841774732518 C 0.0 **** -0.24
8032 H 152.33899703304286 211.3017428362159 45.291583357194625 H 0.0 **** 0.06
8033 H 151.90894890975986 213.02648972877685 45.200833063997294 H 0.0 **** 0.06
8034 H 152.57297464532485 212.1967820317276 43.77137937334831 H 0.0 **** 0.06
8035 H 153.61931557270722 212.5327692726603 45.17140761726806 H 0.0 **** 0.06
8036 C 159.14875806323818 240.57800898036345 164.42776597028768 C 0.0 **** -0.24
8037 H 158.8649098566651 239.53735375360492 164.58417077410485 H 0.0 **** 0.06
8038 H 158.25421051584976 241.20170574176547 164.42519396557287 H 0.0 **** 0.06
8039 H 159.66240663471268 240.67405038226508 163.47112248162836 H 0.0 **** 0.06
8040 H 159.8126772144759 240.898669524961 165.230078089826 H 0.0 **** 0.06
8041 C 193.0212622452354 175.26157375799363 50.093098840972885 C 0.0 **** -0.24
8042 H 193.67703241691964 174.40271130042666 49.95199489003849 H 0.0 **** 0.06
8043 H 193.27282731977584 176.0335544729789 49.36669444510876 H 0.0 **** 0.06
8044 H 193.14845705099958 175.65466986929505 51.10190779246082 H 0.0 **** 0.06
8045 H 191.98481871606754 174.95383890014256 49.9519618709739 H 0.0 **** 0.06
8046 C 61.514862415080785 41.141993607493475 231.00907835664157 C 0.0 **** -0.24
8047 H 62.03907014017628 41.27204517587394 230.06180520246107 H 0.0 **** 0.06
8048 H 60.93186614148334 40.22174629003527 230.97720696889175 H 0.0 **** 0.06
8049 H 60.848585558673165 41.98977503169033 231.17399771128322 H 0.0 **** 0.06
8050 H 62.240224966682916 41.08627868232682 231.8205810256896 H 0.0 **** 0.06
8051 C 63.87119191948267 160.59565732709834 27.193652720371688 C 0.0 **** -0.24
8052 H 63.80944144156928 161.41754144068048 27.9071553161599 H 0.0 **** 0.06
8053 H 64.11964154852689 160.98895140926209 26.20818171088493 H 0.0 **** 0.06
8054 H 62.91218378683317 160.08011755262092 27.14948593494975 H 0.0 **** 0.06
8055 H 64.64478090494703 159.8962794538585 27.511602789546174 H 0.0 **** 0.06
8056 C 193.97453439864069 142.49150256354937 74.33969356745524 C 0.0 **** -0.24
8057 H 193.4653701262419 142.87503899585747 75.22378695424408 H 0.0 **** 0.06
8058 H 194.68328645364443 141.717988101189 74.63648048811513 H 0.0 **** 0.06
8059 H 194.50767689567064 143.3039376627445 73.84714017460763 H 0.0 **** 0.06
8060 H 193.24154264055733 142.06909158377726 73.65307824100668 H 0.0 **** 0.06
8061 C 222.83823991401334 199.62272457840294 172.32837697782068 C 0.0 **** -0.24
8062 H 222.23894195548155 200.2386481690394 172.99850357142483 H 0.0 **** 0.06
8063 H 222.43966822079727 198.60804428030258 172.31444599798422 H 0.0 **** 0.06
8064 H 223.87032883228406 199.60378247109102 172.67778680314757 H 0.0 **** 0.06
8065 H 222.80354933930565 200.04100884204547 171.3221118964314 H 0.0 **** 0.06
8066 C 136.5954381529596 172.08162471898382 141.21249963360847 C 0.0 **** -0.24
8067 H 136.43815524445822 172.39511950493323 140.18016214949142 H 0.0 **** 0.06
8068 H 135.6465940001688 172.11412748950823 141.7494008605557 H 0.0 **** 0.06
8069 H 137.30760736941028 172.75317608813594 141.69105404619484 H 0.0 **** 0.06
8070 H 136.98717363821652 171.06504644718768 141.22761539873255 H 0.0 **** 0.06
8071 C 194.38564658369503 52.13400740556236 61.53923951582871 C 0.0 **** -0.24
8072 H 195.27275984163524 52.36735149160114 62.12651896954728 H 0.0 **** 0.06
8073 H 193.52350626247997 52.65117281432036 61.96150315956771 H 0.0 **** 0.06
8074 H 194.21026048113424 51.05895841195371 61.558158638757874 H 0.0 **** 0.06
8075 H 194.53641370182513 52.45931699892279 60.510246558316055 H 0.0 **** 0.06
8076 C 47.107542446810584 206.4744008027107 132.23190487538906 C 0.0 **** -0.24
8077 H 46.126707040571276 205.9987006692342 132.2454644448512 H 0.0 **** 0.06
8078 H 46.99622516451086 207.54028274711183 132.42950727128024 H 0.0 **** 0.06
8079 H 47.56538466524749 206.33218003633604 131.25234408698665 H 0.0 **** 0.06
8080 H 47.73971345480629 206.02551780338905 132.99794301878885 H 0.0 **** 0.06
8081 C 37.24578994597019 6.432462646351112 62.3529285431967 C 0.0 **** -0.24
8082 H 38.22054297652457 6.412271807705167 61.865119735909445 H 0.0 **** 0.06
8083 H 36.81434215168352 5.432212191301275 62.34459886463512 H 0.0 **** 0.06
8084 H 36.586748881930504 7.1176351131995546 61.81924685848006 H 0.0 **** 0.06
8085 H 37.36235335356034 6.769968227355193 63.383307373687444 H 0.0 **** 0.06
8086 C 50.07157359253611 119.88473385337667 27.8824626985363 C 0.0 **** -0.24
8087 H 50.976553326279515 120.0244655891112 28.472845864368622 H 0.0 **** 0.06
8088 H 49.398959513196445 119.20240487860823 28.403370609253287 H 0.0 **** 0.06
8089 H 50.333046648837325 119.46567244454556 26.911248542395825 H 0.0 **** 0.06
8090 H 49.57709649526626 120.84587645479527 27.741814666582925 H 0.0 **** 0.06
8091 C 120.58850352348799 173.93795424998393 38.88339889488741 C 0.0 **** -0.24
8092 H 119.74955631349741 173.6814281059816 38.23714315806119 H 0.0 **** 0.06
8093 H 120.22135741728465 174.1552274694355 39.88645505188292 H 0.0 **** 0.06
8094 H 121.09925402720495 174.81405459116354 38.48412119498363 H 0.0 **** 0.06
8095 H 121.28365712256493 173.09950628021403 38.924326182164094 H 0.0 **** 0.06
8096 C 224.37557964749095 125.17676118099061 243.40452147585296 C 0.0 **** -0.24
8097 H 223.760328186812 125.35490460002495 242.52168845277268 H 0.0 **** 0.06
8098 H 225.37716989616447 124.87892938320292 243.09426712302076 H 0.0 **** 0.06
8099 H 223.92903765715334 124.38339916337188 244.0034016999898 H 0.0 **** 0.06
8100 H 224.43464196166306 126.09036572616668 243.99583183791248 H 0.0 **** 0.06
8101 C 160.49949166539926 108.29913312029299 42.41127959539361 C 0.0 **** -0.24
8102 H 160.42007539802515 107.8949778953276 41.40206446458288 H 0.0 **** 0.06
8103 H 161.44471154074864 108.831513496355 42.51521749654202 H 0.0 **** 0.06
8104 H 160.45918703627197 107.4828236912864 43.13271983930528 H 0.0 **** 0.06
8105 H 159.67260316534134 108.98537717306914 42.592952580303205 H 0.0 **** 0.06
8106 C 128.22895035768332 221.51700228245159 143.8886701976455 C 0.0 **** -0.24
8107 H 128.38253777881948 222.31598137567187 143.16319112598762 H 0.0 **** 0.06
8108 H 129.11703964926866 220.88546607207263 143.92694555523036 H 0.0 **** 0.06
8109 H 127.3682346583808 220.91796806205377 143.5918924131123 H 0.0 **** 0.06
8110 H 128.04804829364744 221.94999981242375 144.8725132501057 H 0.0 **** 0.06
8111 C 185.38944755141867 169.2913950917781 30.292246617097334 C 0.0 **** -0.24
8112 H 185.88408832710712 169.85881829656816 29.504221887750674 H 0.0 **** 0.06
8113 H 186.01122459053306 169.29532464470265 31.188293186821937 H 0.0 **** 0.06
8114 H 185.23776927726593 168.2642019803633 29.95990855620093 H 0.0 **** 0.06
8115 H 184.4245673185302 169.7463450896205 30.516995829392414 H 0.0 **** 0.06
8116 C 203.23586736395498 52.0615288343178 175.0880758422443 C 0.0 **** -0.24
8117 H 203.0722827722392 52.0936744260794 174.00977424484662 H 0.0 **** 0.06
8118 H 202.28282739726595 51.9076957766445 175.59434926922995 H 0.0 **** 0.06
8119 H 203.67570727455433 53.0030923275492 175.41669813188702 H 0.0 **** 0.06
8120 H 203.91216061400655 51.24132604009938 175.327786876878 H 0.0 **** 0.06
8121 C 214.21580590518164 60.4316575380974 83.63080941981067 C 0.0 **** -0.24
8122 H 214.18007354159627 61.518981029791746 83.69898854110718 H 0.0 **** 0.06
8123 H 213.7413275810431 59.99644835628774 84.50977463382293 H 0.0 **** 0.06
8124 H 215.2547901640669 60.10532336359444 83.57964018840252 H 0.0 **** 0.06
8125 H 213.6888292763026 60.10595996034627 82.73350607219797 H 0.0 **** 0.06
8126 C 61.60939674222598 126.26496195556749 64.86118928263608 C 0.0 **** -0.24
8127 H 61.804318803175164 127.30126075456354 65.13946750769358 H 0.0 **** 0.06
8128 H 60.883116937237276 126.23672639331195 64.04901136795655 H 0.0 **** 0.06
8129 H 61.21372508117767 125.72633808044964 65.72252709757629 H 0.0 **** 0.06
8130 H 62.53871884595776 125.79742657678969 64.53520666044963 H 0.0 **** 0.06
8131 C 235.9634640828094 107.40840018251362 8.305767154121071 C 0.0 **** -0.24
8132 H 236.1168495008782 106.61110447445512 7.578959731072757 H 0.0 **** 0.06
8133 H 235.29415863140517 108.15999760675794 7.885047400736141 H 0.0 **** 0.06
8134 H 236.9216174334019 107.86951167266693 8.547036561926419 H 0.0 **** 0.06
8135 H 235.5215372864172 106.99432459012968 9.211683084568875 H 0.0 **** 0.06
8136 C 181.99070773842192 218.7520834208225 77.39572796261584 C 0.0 **** -0.24
8137 H 181.43340292049396 219.41270380896233 78.05863489098866 H 0.0 **** 0.06
8138 H 182.5449761519028 218.0241028668641 77.9893367748247 H 0.0 **** 0.06
8139 H 182.68723270291466 219.34052191247434 76.7979523436195 H 0.0 **** 0.06
8140 H 181.29722269113668 218.2299598698036 76.73560671062955 H 0.0 **** 0.06
8141 C 53.23022653329696 89.72613129805455 111.01095443853907 C 0.0 **** -0.24
8142 H 53.087172491650136 90.72976367550658 111.41026152869946 H 0.0 **** 0.06
8143 H 54.25152178865599 89.39816357935518 111.20867839130295 H 0.0 **** 0.06
8144 H 53.0528285664458 89.7348791318966 109.93517099696905 H 0.0 **** 0.06
8145 H 52.52974881844858 89.04213586185475 111.48887469534066 H 0.0 **** 0.06
8146 C 189.97742709347426 150.40528417025553 61.52615027092821 C 0.0 **** -0.24
8147 H 189.4078546114646 150.25249371142388 60.609609039128514 H 0.0 **** 0.06
8148 H 190.7415447753778 149.63231011533486 61.61256702152417 H 0.0 **** 0.06
8149 H 189.307148377028 150.35142122861623 62.38413558368427 H 0.0 **** 0.06
8150 H 190.45360414770556 151.38608862364293 61.49893594499903 H 0.0 **** 0.06
8151 C 150.32386759556252 215.14669225557162 86.86005061271598 C 0.0 **** -0.24
8152 H 150.34910210536745 214.72644300627536 85.85464603899479 H 0.0 **** 0.06
8153 H 149.63333256545226 214.57185801315333 87.47722525227778 H 0.0 **** 0.06
8154 H 149.9916644944373 216.18383323595154 86.81301597931508 H 0.0 **** 0.06
8155 H 151.32236021667975 215.10457137844918 87.29518149684085 H 0.0 **** 0.06
8156 C 79.6678913789022 90.61429176339027 92.13234623592484 C 0.0 **** -0.24
8157 H 79.58081212646948 90.58492351707062 91.04588625684434 H 0.0 **** 0.06
8158 H 78.9961032281073 89.87653099330876 92.57090671511804 H 0.0 **** 0.06
8159 H 79.40237539798161 91.60807604657117 92.49046718536832 H 0.0 **** 0.06
8160 H 80.69488390666376 90.38704429461188 92.4195091023812 H 0.0 **** 0.06
8161 C 44.89965695732411 92.22855751718814 1.7165481708062487 C 0.0 **** -0.24
8162 H 45.755764301059315 92.60848228211384 2.2737321209465478 H 0.0 **** 0.06
8163 H 44.36691664617169 93.06100944661696 1.256703505175011 H 0.0 **** 0.06
8164 H 44.23058254102082 91.69955097938029 2.396028183875245 H 0.0 **** 0.06
8165 H 45.24439657928602 91.54466898261646 0.941068556255857 H 0.0 **** 0.06
8166 C 2.513155070776179 224.6263316807582 153.10054372606436 C 0.0 **** -0.24
8167 H 2.9674167526681714 223.992213160836 153.8628347532849 H 0.0 **** 0.06
8168 H 2.9734531805700755 224.41719998146465 152.13468961946003 H 0.0 **** 0.06
8169 H 2.6697893356367075 225.67324614500015 153.3594672202608 H 0.0 **** 0.06
8170 H 1.4444736158165767 224.4212884408937 153.0468522371381 H 0.0 **** 0.06
8171 C 228.35613781163846 92.93167939273212 140.51542618819929 C 0.0 **** -0.24
8172 H 227.78512568776074 93.83210389268521 140.29007881538482 H 0.0 **** 0.06
8173 H 227.67026753881936 92.10568881058751 140.708159456976 H 0.0 **** 0.06
8174 H 228.974015214855 93.10422283208067 141.39681080793827 H 0.0 **** 0.06
8175 H 228.99389874639957 92.68409609165877 139.66694751037906 H 0.0 **** 0.06
8176 C 117.4296649501045 52.16906408915233 173.4090546577718 C 0.0 **** -0.24
8177 H 116.93506227015729 52.5319194804525 174.31007947620176 H 0.0 **** 0.06
8178 H 116.74851962092367 51.51892819359486 172.85930750293767 H 0.0 **** 0.06
8179 H 118.32308885930061 51.60974122829347 173.68627158159646 H 0.0 **** 0.06
8180 H 117.70926799271194 53.015294458504144 172.78310110508588 H 0.0 **** 0.06
8181 C 107.7397093263175 181.58508776783316 216.95477174257485 C 0.0 **** -0.24
8182 H 107.21469982524513 180.72133958878896 217.364100079201 H 0.0 **** 0.06
8183 H 107.02135303609191 182.25683091860074 216.48444318459258 H 0.0 **** 0.06
8184 H 108.46474131455778 181.2511146213215 216.21386074686671 H 0.0 **** 0.06
8185 H 108.25568576623954 182.10997814584573 217.7587468502211 H 0.0 **** 0.06
8186 C 156.7339841566758 58.81609901232903 81.91437976131473 C 0.0 **** -0.24
8187 H 156.82813809021494 57.75544317354135 81.67926317840926 H 0.0 **** 0.06
8188 H 156.60017074109132 58.93943825390508 82.98835041037972 H 0.0 **** 0.06
8189 H 155.87177267544286 59.22864749563743 81.39089177182132 H 0.0 **** 0.06
8190 H 157.63666453162844 59.33966231842797 81.59704052745246 H 0.0 **** 0.06
8191 C 236.62703141014697 40.10655989576283 64.91895412993827 C 0.0 **** -0.24
8192 H 237.0845825366498 39.16245437944782 64.62436237238461 H 0.0 **** 0.06
8193 H 236.26890025210696 40.03134669833754 65.9465277936608 H 0.0 **** 0.06
8194 H 235.7893611739908 40.32635083197009 64.25782246449069 H 0.0 **** 0.06
8195 H 237.36536706580398 40.905058904350696 64.84908741941362 H 0.0 **** 0.06
8196 C 118.19163611570218 90.92122264038 137.79326074035217 C 0.0 **** -0.24
8197 H 118.75543998770954 91.78512855587894 137.44136255688807 H 0.0 **** 0.06
8198 H 117.58913740587508 91.20760958483925 138.6556611103208 H 0.0 **** 0.06
8199 H 118.88280425491095 90.12830276417048 138.0796786970022 H 0.0 **** 0.06
8200 H 117.53927435881124 90.56482749159701 136.99616337885118 H 0.0 **** 0.06
8201 C 241.84988888741714 181.6782934131083 65.72951001831174 C 0.0 **** -0.24
8202 H 242.44921217055466 180.89381904098946 66.19148851343394 H 0.0 **** 0.06
8203 H 240.8162716975973 181.59296245773731 66.06588288989494 H 0.0 **** 0.06
8204 H 241.88790017383326 181.57288035007014 64.64424792130953 H 0.0 **** 0.06
8205 H 242.2462339992315 182.6533284669776 66.01282038625678 H 0.0 **** 0.06
8206 C 49.836008077213506 89.76943359307342 51.80113412093297 C 0.0 **** -0.24
8207 H 50.13521908869967 90.25210649328298 50.8710560566615 H 0.0 **** 0.06
8208 H 50.6801244583921 89.75680848938185 52.49157291144721 H 0.0 **** 0.06
8209 H 49.520626976528575 88.74707173290682 51.5936719469606 H 0.0 **** 0.06
8210 H 49.00925289069349 90.32176296564086 52.246628997042336 H 0.0 **** 0.06
8211 C 103.94462682013145 125.51589414668851 36.114426460115155 C 0.0 **** -0.24
8212 H 104.77054300360246 125.01252694593026 35.611437899472534 H 0.0 **** 0.06
8213 H 104.28356555440297 125.89517782628408 37.07804255896349 H 0.0 **** 0.06
8214 H 103.12829707543301 124.81018393476958 36.26773468570772 H 0.0 **** 0.06
8215 H 103.59653421226679 126.34523135148876 35.49859214206607 H 0.0 **** 0.06
8216 C 150.5068436961537 41.85219531760103 132.4072428159657 C 0.0 **** -0.24
8217 H 149.535986403896 41.76431755095709 132.89589319673962 H 0.0 **** 0.06
8218 H 151.28086457236367 41.9980563707404 133.16134414514667 H 0.0 **** 0.06
8219 H 150.49572603473763 42.705969959311034 131.72913896300716 H 0.0 **** 0.06
8220 H 150.71366048877803 40.943252994903304 131.8434775949046 H 0.0 **** 0.06
8221 C 15.164800624162169 103.47840907422116 179.0792901640321 C 0.0 **** -0.24
8222 H 16.166296692087627 103.07980144638665 179.24015082008611 H 0.0 **** 0.06
8223 H 15.236549886567019 104.46480307176913 178.62064923955802 H 0.0 **** 0.06
8224 H 14.64816522534285 103.55838872581069 180.03588186990265 H 0.0 **** 0.06
8225 H 14.609233621849867 102.8115888119465 178.42034509267154 H 0.0 **** 0.06
8226 C 94.67407239373603 245.79427037418975 23.826855379302387 C 0.0 **** -0.24
8227 H 94.12394942868423 245.69559728170162 22.891611612698767 H 0.0 **** 0.06
8228 H 95.29423835000483 244.9113177455451 23.978675678042364 H 0.0 **** 0.06
8229 H 93.96961504203978 245.89111408611643 24.653148128294845 H 0.0 **** 0.06
8230 H 95.30721389716481 246.68094014522248 23.784889562971358 H 0.0 **** 0.06
8231 C 86.77224784557814 132.30119661119923 82.1124646468486 C 0.0 **** -0.24
8232 H 85.79084833851292 132.53717145321016 82.52419204807288 H 0.0 **** 0.06
8233 H 86.7101441375491 131.38097633123766 81.53138949088728 H 0.0 **** 0.06
8234 H 87.48626889510194 132.17072785569917 82.9255909672624 H 0.0 **** 0.06
8235 H 87.10118379057002 133.11651803703376 81.46753155469477 H 0.0 **** 0.06
8236 C 173.76404311629008 181.01187220226979 7.712719115566017 C 0.0 **** -0.24
8237 H 174.64842065481156 180.77902288952993 8.305293271238241 H 0.0 **** 0.06
8238 H 173.8875324732022 181.988716399552 7.24390425519465 H 0.0 **** 0.06
8239 H 172.88723539558242 181.02746843909824 8.359856307065314 H 0.0 **** 0.06
8240 H 173.6328771493971 180.2532422723201 6.941568234932234 H 0.0 **** 0.06
8241 C 201.38244686557874 36.73390931011559 245.13351767919406 C 0.0 **** -0.24
8242 H 202.32374386308192 37.17302095268177 245.46359872088544 H 0.0 **** 0.06
8243 H 200.8806825496083 36.26988161589213 245.98384024097976 H 0.0 **** 0.06
8244 H 201.5821621468017 35.978560726016184 244.37385006342498 H 0.0 **** 0.06
8245 H 200.74514393891027 37.51256769291487 244.7146887529512 H 0.0 **** 0.06
8246 C 88.97665171243435 145.3569059862334 47.51371355598053 C 0.0 **** -0.24
8247 H 89.68836919486236 146.1777006689259 47.42496738249244 H 0.0 **** 0.06
8248 H 88.05046679054814 145.72662125676 47.954985228794726 H 0.0 **** 0.06
8249 H 89.39699780279034 144.57783044831194 48.1488222309133 H 0.0 **** 0.06
8250 H 88.76906650433529 144.94839589439874 46.52448685821288 H 0.0 **** 0.06
8251 C 164.9252813219709 24.818048332425462 96.1229434024221 C 0.0 **** -0.24
8252 H 165.22857403344528 24.87070091378905 97.16822747808598 H 0.0 **** 0.06
8253 H 165.16995526729795 23.83222687716058 95.72355472176994 H 0.0 **** 0.06
8254 H 165.45325025195038 25.581951451649886 95.55294481149662 H 0.0 **** 0.06
8255 H 163.85121921610246 24.984972263461373 96.04712418018926 H 0.0 **** 0.06
8256 C 106.74167935656769 241.74718961600956 175.90263884894273 C 0.0 **** -0.24
8257 H 107.17088104045908 241.4142330389393 176.8481637883359 H 0.0 **** 0.06
8258 H 105.89923285508891 242.410370428119 176.10154003353296 H 0.0 **** 0.06
8259 H 106.39806768586297 240.88220297588475 175.33538343848048 H 0.0 **** 0.06
8260 H 107.49800110276564 242.28105700609558 175.32877163597297 H 0.0 **** 0.06
8261 C 34.774767544429466 192.19668138515183 45.64051596930679 C 0.0 **** -0.24
8262 H 35.38311956271488 191.32046162951323 45.41624307480727 H 0.0 **** 0.06
8263 H 33.73273123356611 191.98640268733615 45.40018960303297 H 0.0 **** 0.06
8264 H 35.1227914969231 193.04176437067102 45.04518105450828 H 0.0 **** 0.06
8265 H 34.86339501093536 192.43775790691845 46.70016490124428 H 0.0 **** 0.06
8266 C 77.34635500498572 109.13407942364839 115.19140563499195 C 0.0 **** -0.24
8267 H 76.78588022397943 109.0233073688679 114.26306564236572 H 0.0 **** 0.06
8268 H 78.01541731333461 108.28188220011506 115.31587290461869 H 0.0 **** 0.06
8269 H 76.65187280555116 109.17702826137139 116.03059717682515 H 0.0 **** 0.06
8270 H 77.93086048398865 110.05352756332266 115.15522504853593 H 0.0 **** 0.06
8271 C 246.65765502876104 2.814441476668577 54.966757089301694 C 0.0 **** -0.24
8272 H 246.2975182488448 1.855524587195049 55.339237245168164 H 0.0 **** 0.06
8273 H 245.87128014899423 3.563523988773312 55.071840539191584 H 0.0 **** 0.06
8274 H 246.92932921721848 2.717467766256476 53.916127376482365 H 0.0 **** 0.06
8275 H 247.53174764028583 3.121903727025142 55.54124350779634 H 0.0 **** 0.06
8276 C 215.2412473333382 193.90335689432914 150.89990172173674 C 0.0 **** -0.24
8277 H 215.6956095429377 192.91363555401387 150.92371778880783 H 0.0 **** 0.06
8278 H 214.2219024341552 193.8442312183749 151.28237486751436 H 0.0 **** 0.06
8279 H 215.2232144939528 194.26977040502362 149.87319410470184 H 0.0 **** 0.06
8280 H 215.82319424670854 194.5855520956276 151.51942497719276 H 0.0 **** 0.06
8281 C 44.22016371688969 240.8759941663738 186.94574091574657 C 0.0 **** -0.24
8282 H 43.90486755891507 240.1439046708777 186.20150044138347 H 0.0 **** 0.06
8283 H 45.24635797999392 241.18342185053086 186.73964108184384 H 0.0 **** 0.06
8284 H 44.1672450038958 240.4306446992041 187.93922168120224 H 0.0 **** 0.06
8285 H 43.56425886951047 241.74506858853061 186.90018826632942 H 0.0 **** 0.06
8286 C 168.93495591427865 192.49431953755092 136.2700689156792 C 0.0 **** -0.24
8287 H 168.8390043882174 193.57990235990493 136.2620810386135 H 0.0 **** 0.06
8288 H 168.12432746269116 192.05319627216682 135.68994707614976 H 0.0 **** 0.06
8289 H 168.8850317672774 192.1325771396693 137.29747856822297 H 0.0 **** 0.06
8290 H 169.89197523250357 192.21081021259988 135.83109617778004 H 0.0 **** 0.06
8291 C 87.58691950611873 41.49706384016608 133.0396309356625 C 0.0 **** -0.24
8292 H 87.65449848557793 41.40087017429791 131.9562753046857 H 0.0 **** 0.06
8293 H 87.83366492357177 40.54198805556756 133.5044615753644 H 0.0 **** 0.06
8294 H 86.57209382128815 41.784942679585086 133.31561495723585 H 0.0 **** 0.06
8295 H 88.28639963119019 42.259032836181646 133.38120429175794 H 0.0 **** 0.06
8296 C 184.18204496412017 202.36439923960307 1.3369404047808473 C 0.0 **** -0.24
8297 H 184.57491773206067 201.3498198589797 1.3993682267484928 H 0.0 **** 0.06
8298 H 184.92288889137131 203.01237841462734 0.8667342266284379 H 0.0 **** 0.06
8299 H 183.9614475367237 202.73101150056553 2.339395786851668 H 0.0 **** 0.06
8300 H 183.26867790789515 202.36462572544002 0.7408916214582462 H 0.0 **** 0.06
8301 C 69.3994673845452 156.59110568282446 34.250801444810804 C 0.0 **** -0.24
8302 H 70.44092892563071 156.31612897182552 34.42037221093439 H 0.0 **** 0.06
8303 H 68.75712711824588 155.9955102334777 34.899320997493234 H 0.0 **** 0.06
8304 H 69.13933595004079 156.4037951764686 33.209360148936824 H 0.0 **** 0.06
8305 H 69.26242109567733 157.64879455361242 34.47524104473929 H 0.0 **** 0.06
8306 C 3.730282413424135 169.5065639185882 96.14388030646333 C 0.0 **** -0.24
8307 H 3.5126079706306257 168.97798495639307 95.21635689611074 H 0.0 **** 0.06
8308 H 2.8171326005101207 169.59986235629697 96.73168502688557 H 0.0 **** 0.06
8309 H 4.117432789161427 170.4997045444523 95.91358948157438 H 0.0 **** 0.06
8310 H 4.474409042616202 168.94941292549998 96.71334927219732 H 0.0 **** 0.06
8311 C 66.61222885348897 125.66645253722905 124.19701603456488 C 0.0 **** -0.24
8312 H 67.58738854357352 125.18031253245076 124.15969246177974 H 0.0 **** 0.06
8313 H 66.39612939737955 125.96953323072307 125.222044667548 H 0.0 **** 0.06
8314 H 65.84666037858238 124.97137519452491 123.85340584978587 H 0.0 **** 0.06
8315 H 66.62020418662271 126.54611639649403 123.55220329202604 H 0.0 **** 0.06
8316 C 19.994251352703515 59.10814734727805 226.2961679254365 C 0.0 **** -0.24
8317 H 20.549290747102262 60.04518700991028 226.34331145767766 H 0.0 **** 0.06
8318 H 20.07315227277914 58.59057069541521 227.25233037282413 H 0.0 **** 0.06
8319 H 20.40843066284293 58.4803647159772 225.50707855278182 H 0.0 **** 0.06
8320 H 18.94690960423985 59.31743806076747 226.08127907844772 H 0.0 **** 0.06
8321 C 163.73962859221928 118.21970687629153 238.32964417491087 C 0.0 **** -0.24
8322 H 163.8424037304804 117.44283810246145 239.08810166242128 H 0.0 **** 0.06
8323 H 162.94842582256157 117.94334939438309 237.6330680602066 H 0.0 **** 0.06
8324 H 164.67980742097996 118.3257242977684 237.7888950276041 H 0.0 **** 0.06
8325 H 163.48712015741364 119.16514348969969 238.80964591298743 H 0.0 **** 0.06
8326 C 63.36207707052776 164.15187171160747 154.80975048389098 C 0.0 **** -0.24
8327 H 64.24967501483775 164.25226359859414 154.18570808157506 H 0.0 **** 0.06
8328 H 63.148515897967286 165.10540878922018 155.29322048393163 H 0.0 **** 0.06
8329 H 63.535331175500744 163.3904476647851 155.5691989613553 H 0.0 **** 0.06
8330 H 62.51363255893477 163.8610092684631 154.18988878587624 H 0.0 **** 0.06
8331 C 116.61306198801344 115.92223342146585 74.53297330901862 C 0.0 **** -0.24
8332 H 115.85604002802961 116.47258810033537 73.97329120331045 H 0.0 **** 0.06
8333 H 116.16179299169602 115.49512232021294 75.4286456660175 H 0.0 **** 0.06
8334 H 117.41730707527444 116.6000643778024 74.81796383041242 H 0.0 **** 0.06
8335 H 117.01453589103312 115.12276474831262 73.91064854638157 H 0.0 **** 0.06
8336 C 152.77773975575943 35.024741479852295 205.47440850844356 C 0.0 **** -0.24
8337 H 152.69096147881498 34.73970688326986 204.42538782736432 H 0.0 **** 0.06
8338 H 151.86888496664702 34.739789004729644 206.00480989658982 H 0.0 **** 0.06
8339 H 152.91706447803088 36.103158623292614 205.54622529057602 H 0.0 **** 0.06
8340 H 153.63294352003535 34.51652530858351 205.9192786115786 H 0.0 **** 0.06
8341 C 70.59943950220071 75.04789664366172 60.54869710883705 C 0.0 **** -0.24
8342 H 70.68333247774925 75.58843756863826 61.49164305041194 H 0.0 **** 0.06
8343 H 70.12431996364182 74.08307770213213 60.72430575574711 H 0.0 **** 0.06
8344 H 71.59439615517186 74.89271087492602 60.130285571526116 H 0.0 **** 0.06
8345 H 69.99791887103672 75.62851627820018 59.85022210801418 H 0.0 **** 0.06
8346 C 31.611041366188303 5.099415034259735 82.31336539502698 C 0.0 **** -0.24
8347 H 31.712260375014566 4.390453938458009 81.49228352598917 H 0.0 **** 0.06
8348 H 31.58893304208003 6.1144642798429345 81.91591372914613 H 0.0 **** 0.06
8349 H 32.45695218014683 4.993031646943422 82.99236321314746 H 0.0 **** 0.06
8350 H 30.685145696913324 4.899543761702006 82.85335730245575 H 0.0 **** 0.06
8351 C 166.27543086123785 130.788133179123 174.06631239403401 C 0.0 **** -0.24
8352 H 165.27292769605296 130.56087931792212 173.70347543696744 H 0.0 **** 0.06
8353 H 166.34337958327004 130.5379782158148 175.12565796903186 H 0.0 **** 0.06
8354 H 166.47942707164142 131.85003439399136 173.92980992920715 H 0.0 **** 0.06
8355 H 167.0051633143263 130.20367403815854 173.50686926150402 H 0.0 **** 0.06
8356 C 153.38223286797 36.803518136255335 122.77604677352605 C 0.0 **** -0.24
8357 H 153.88364934040908 37.757009337150876 122.94214499904939 H 0.0 **** 0.06
8358 H 152.31534190682035 36.97546401275896 122.62663498845558 H 0.0 **** 0.06
8359 H 153.5286809993563 36.15959831068659 123.64209166424402 H 0.0 **** 0.06
8360 H 153.80037031607952 36.323327794487355 121.8914582378649 H 0.0 **** 0.06
8361 C 38.1449823184597 30.660663321574106 47.4519250208684 C 0.0 **** -0.24
8362 H 38.079131231317845 31.641211685206642 47.92203362257854 H 0.0 **** 0.06
8363 H 38.498527595189145 30.771760034202515 46.42612541012767 H 0.0 **** 0.06
8364 H 37.16051459945186 30.193240546188278 47.44895447892466 H 0.0 **** 0.06
8365 H 38.842570332329416 30.035915672548683 48.010832811847905 H 0.0 **** 0.06
8366 C 177.113668877877 247.40738756334622 73.23862468252358 C 0.0 **** -0.24
8367 H 177.7910422382047 247.83576725824162 73.97767254361884 H 0.0 **** 0.06
8368 H 176.68870041231008 246.4827535824266 73.63002138644319 H 0.0 **** 0.06
8369 H 177.664044904558 247.19602948457225 72.32168217426852 H 0.0 **** 0.06
8370 H 176.31269880591873 248.11500539677286 73.0267721264965 H 0.0 **** 0.06
8371 C 232.7966291182207 32.274597091985356 125.75653810683417 C 0.0 **** -0.24
8372 H 233.14506381163721 32.45364229031584 126.77394493553476 H 0.0 **** 0.06
8373 H 231.90592822967915 32.87331282481003 125.5675223351329 H 0.0 **** 0.06
8374 H 232.55730987593702 31.218149607711 125.63502439373158 H 0.0 **** 0.06
8375 H 233.5798694608281 32.55369365421954 125.0511075628533 H 0.0 **** 0.06
8376 C 27.97239858940462 135.0324353988138 203.46758159443203 C 0.0 **** -0.24
8377 H 28.757082437946565 135.58289581103838 203.98808728762407 H 0.0 **** 0.06
8378 H 27.17307554525901 135.71850255368992 203.18593091143313 H 0.0 **** 0.06
8379 H 27.57421391031805 134.25996374825735 204.12654903907844 H 0.0 **** 0.06
8380 H 28.386290457139353 134.56872487751633 202.57332848537357 H 0.0 **** 0.06
8381 C 3.6691659397903322 154.67599184646517 87.92405954336934 C 0.0 **** -0.24
8382 H 3.542414180167299 154.8252918061209 86.85207816448676 H 0.0 **** 0.06
8383 H 4.533312395425838 154.0350159935111 88.10168678903003 H 0.0 **** 0.06
8384 H 2.775503108232755 154.20551030702606 88.333199405241 H 0.0 **** 0.06
8385 H 3.826578944608258 155.64097193388739 88.40796156398429 H 0.0 **** 0.06
8386 C 52.52737281926072 35.14813951003342 15.619380320744582 C 0.0 **** -0.24
8387 H 53.57027813734064 34.92549746120656 15.844368280683 H 0.0 **** 0.06
8388 H 52.133246544009424 34.389609696308156 14.941712564569897 H 0.0 **** 0.06
8389 H 52.45847052923207 36.12835226737516 15.148063028518195 H 0.0 **** 0.06
8390 H 51.94842546855725 35.147149061674014 16.5427981844592 H 0.0 **** 0.06
8391 C 127.49508974214885 134.98375061697286 212.55105882573213 C 0.0 **** -0.24
8392 H 127.06310476151191 134.538425564068 213.44804887951295 H 0.0 **** 0.06
8393 H 128.01974238868036 134.21675378772974 211.98101493506314 H 0.0 **** 0.06
8394 H 128.19579277899985 135.76756299334932 212.8368051661822 H 0.0 **** 0.06
8395 H 126.70029103062237 135.4109214958065 211.93983905000235 H 0.0 **** 0.06
8396 C 23.50061248297189 79.5550298537228 137.65058427348322 C 0.0 **** -0.24
8397 H 23.10607778474605 79.5615046261361 136.63436627464927 H 0.0 **** 0.06
8398 H 23.56589994133401 78.52753078885456 138.00781358908216 H 0.0 **** 0.06
8399 H 22.838196694181647 80.12543063763914 138.30094481038594 H 0.0 **** 0.06
8400 H 24.49271788455397 80.00604820067676 137.65705639163704 H 0.0 **** 0.06
8401 C 232.65545910879408 165.72185687292716 145.44968890406284 C 0.0 **** -0.24
8402 H 233.07250448983234 164.72854722439854 145.61667891870502 H 0.0 **** 0.06
8403 H 233.0427557609391 166.12573481584286 144.5143678479813 H 0.0 **** 0.06
8404 H 232.93850769396002 166.37727542793013 146.27386764293084 H 0.0 **** 0.06
8405 H 231.56962383867528 165.6550877455225 145.39524441070984 H 0.0 **** 0.06
8406 C 160.85326827143408 28.119836285826153 52.57793056017876 C 0.0 **** -0.24
8407 H 161.42692363748228 27.937548603150134 51.66975366056775 H 0.0 **** 0.06
8408 H 159.89087751869704 27.61441045926108 52.507863970952954 H 0.0 **** 0.06
8409 H 160.69374603856414 29.191111331090823 52.69722429821772 H 0.0 **** 0.06
8410 H 161.403277010541 27.737155969529525 53.437955987883626 H 0.0 **** 0.06
8411 C 207.2047576831903 194.2264475079816 177.46532188763882 C 0.0 **** -0.24
8412 H 206.80162412327928 194.8339611799093 176.65599560874836 H 0.0 **** 0.06
8413 H 208.1670189562789 194.63031380117536 177.77787238811266 H 0.0 **** 0.06
8414 H 207.33490813423904 193.20101709808245 177.12027421299595 H 0.0 **** 0.06
8415 H 206.51370117867535 194.24052466761182 178.30882963596918 H 0.0 **** 0.06
8416 C 155.73676831938954 82.144254591715 10.226022581048056 C 0.0 **** -0.24
8417 H 156.18949535253907 81.35978965258911 9.619187705161224 H 0.0 **** 0.06
8418 H 154.69612061435436 81.89080509096468 10.428833516927554 H 0.0 **** 0.06
8419 H 155.78216129965858 83.09045623323723 9.689244717753425 H 0.0 **** 0.06
8420 H 156.27914352358522 82.23354150869395 11.167127543657415 H 0.0 **** 0.06
8421 C 241.39956174983928 206.40281020970926 223.9277563619774 C 0.0 **** -0.24
8422 H 241.9245293517375 207.34926649543397 224.05585820461692 H 0.0 **** 0.06
8423 H 242.0233558846631 205.58859407621026 224.29716878536118 H 0.0 **** 0.06
8424 H 241.18625119893568 206.24577777768667 222.87009479035123 H 0.0 **** 0.06
8425 H 240.4645173345036 206.4277503381126 224.48655730283048 H 0.0 **** 0.06
8426 C 79.47815849121062 244.96906101415033 4.63484859130692 C 0.0 **** -0.24
8427 H 78.66784929377326 244.4909177554583 5.186021528451292 H 0.0 **** 0.06
8428 H 80.09981840696611 244.20426313824834 4.168323419241233 H 0.0 **** 0.06
8429 H 80.08345489994755 245.5617203199062 5.320343863627926 H 0.0 **** 0.06
8430 H 79.0596562884516 245.61818365038718 3.8651692513656286 H 0.0 **** 0.06
8431 C 24.861576116848184 199.27934121333175 187.55371397454965 C 0.0 **** -0.24
8432 H 24.288728948998354 200.2059004776301 187.520795626389 H 0.0 **** 0.06
8433 H 25.926812368761432 199.51221854934306 187.563736567248 H 0.0 **** 0.06
8434 H 24.62930827105916 198.6772901087487 186.67523137099093 H 0.0 **** 0.06
8435 H 24.602104108970295 198.7248771089325 188.45530223888744 H 0.0 **** 0.06
8436 C 90.31687329953158 27.362459163561 163.5295560669762 C 0.0 **** -0.24
8437 H 90.84373062218796 28.300664494860484 163.357185300136 H 0.0 **** 0.06
8438 H 89.37149919839104 27.371782939319047 162.98576432463588 H 0.0 **** 0.06
8439 H 90.12171608609438 27.246186975101125 164.59563392976634 H 0.0 **** 0.06
8440 H 90.92996853048541 26.53179006301474 163.17907545641785 H 0.0 **** 0.06
8441 C 217.94468235126584 53.80712534031528 210.30310671115868 C 0.0 **** -0.24
8442 H 217.19321030585857 53.68311222057338 209.5238332848873 H 0.0 **** 0.06
8443 H 218.8911627002272 53.38385304243707 209.9650888255168 H 0.0 **** 0.06
8444 H 217.6184317902006 53.291519042226994 211.206691954613 H 0.0 **** 0.06
8445 H 218.07528725299804 54.86771746616711 210.51625985780765 H 0.0 **** 0.06
8446 C 83.88601795725137 76.54347387473311 72.05624567669119 C 0.0 **** -0.24
8447 H 83.34525368546852 76.82811013806551 71.15334768991511 H 0.0 **** 0.06
8448 H 84.86718830575407 76.15468843244639 71.78360085840714 H 0.0 **** 0.06
8449 H 83.32399115445276 75.77472685982724 72.58818127956704 H 0.0 **** 0.06
8450 H 84.00512284396797 77.4159674464992 72.69772954308831 H 0.0 **** 0.06
8451 C 17.028334892963215 116.03457166510915 102.72109647561484 C 0.0 **** -0.24
8452 H 17.456852707572097 115.48821141993503 103.56161449387932 H 0.0 **** 0.06
8453 H 15.94105813398474 115.96608012802233 102.76028487515975 H 0.0 **** 0.06
8454 H 17.385858409152178 115.6015396233278 101.78620569725302 H 0.0 **** 0.06
8455 H 17.33019034797107 117.07980150982323 102.77552450399227 H 0.0 **** 0.06
8456 C 123.55404000823168 106.39013857667103 192.17678845594915 C 0.0 **** -0.24
8457 H 123.73449329172635 107.3420791154511 191.67616044572497 H 0.0 **** 0.06
8458 H 123.53044474053581 105.58966809371975 191.43728670544303 H 0.0 **** 0.06
8459 H 122.59995193462899 106.43129254147442 192.7005239333261 H 0.0 **** 0.06
8460 H 124.35359160258616 106.20024892208156 192.8928169019386 H 0.0 **** 0.06
8461 C 89.3409314798977 241.263229937262 117.65812826237641 C 0.0 **** -0.24
8462 H 89.35622003043747 242.33038060392818 117.43588225640102 H 0.0 **** 0.06
8463 H 89.65057617206693 240.70409506669552 116.77549247969216 H 0.0 **** 0.06
8464 H 88.33120023418937 240.96588636172135 117.94158051700225 H 0.0 **** 0.06
8465 H 90.0254081158906 241.0548445924997 118.48037448531267 H 0.0 **** 0.06
8466 C 71.94820364055184 27.13814202889145 134.80249782729 C 0.0 **** -0.24
8467 H 72.83205140001704 26.703431914021365 134.33648622269706 H 0.0 **** 0.06
8468 H 72.2034359006999 27.496615731587355 135.80004415361782 H 0.0 **** 0.06
8469 H 71.16755586539915 26.38157749660624 134.87596019778383 H 0.0 **** 0.06
8470 H 71.5919107842416 27.971246516608602 134.19692547119172 H 0.0 **** 0.06
8471 C 246.34454898293788 197.29840601520158 71.74150594849212 C 0.0 **** -0.24
8472 H 246.68293018281742 198.28090699414753 71.41157479739479 H 0.0 **** 0.06
8473 H 246.033932516903 196.7121772267208 70.87687320329093 H 0.0 **** 0.06
8474 H 245.50252031280837 197.41469110139948 72.42370098272224 H 0.0 **** 0.06
8475 H 247.15956267791802 196.78738941894522 72.2536214432474 H 0.0 **** 0.06
8476 C 57.521888017664594 28.56596495431242 85.16284342891129 C 0.0 **** -0.24
8477 H 58.0619808534195 29.422275587031777 85.56845335433022 H 0.0 **** 0.06
8478 H 58.14473124346253 28.06256459440999 84.42337945868121 H 0.0 **** 0.06
8479 H 56.600872128722074 28.90899294212656 84.69044305776038 H 0.0 **** 0.06
8480 H 57.28117278519596 27.872928347498387 85.9687392061181 H 0.0 **** 0.06
8481 C 86.93654585886713 174.98486312306332 27.356077745977146 C 0.0 **** -0.24
8482 H 87.33200966976028 175.0671114816093 28.368599920216823 H 0.0 **** 0.06
8483 H 86.56061352054434 175.95619856233787 27.032541157611732 H 0.0 **** 0.06
8484 H 86.12393600966357 174.25820984004326 27.34142124901527 H 0.0 **** 0.06
8485 H 87.7289002746 174.6583443349216 26.682302165430443 H 0.0 **** 0.06
8486 C 107.95165581234642 33.792768833134446 104.98077127597725 C 0.0 **** -0.24
8487 H 108.94382395987529 33.55298142337472 104.60003262272551 H 0.0 **** 0.06
8488 H 107.21822018772329 33.67193492458456 104.18314233571502 H 0.0 **** 0.06
8489 H 107.9384946713032 34.82386601682458 105.33466667835134 H 0.0 **** 0.06
8490 H 107.70655988739017 33.12316931532226 105.80516623106811 H 0.0 **** 0.06
8491 C 181.42377464814604 108.85137686745486 10.223260183553165 C 0.0 **** -0.24
8492 H 180.86876853486086 109.32250723152623 9.412630210187842 H 0.0 **** 0.06
8493 H 180.76019651459737 108.69341468848273 11.073922036254245 H 0.0 **** 0.06
8494 H 182.25037589252304 109.49680990695595 10.520833949700616 H 0.0 **** 0.06
8495 H 181.81676016783416 107.89219832079547 9.88484110219899 H 0.0 **** 0.06
8496 C 152.53775212592552 2.92773416655632 58.70247247232717 C 0.0 **** -0.24
8497 H 152.10798083593576 3.393186007535377 59.589165083056656 H 0.0 **** 0.06
8498 H 153.6201260973242 3.0531613735011263 58.71492896498461 H 0.0 **** 0.06
8499 H 152.12700739279342 3.4006855868138075 57.80973102051229 H 0.0 **** 0.06
8500 H 152.29439802471157 1.86556403503468 58.695995126762426 H 0.0 **** 0.06
8501 C 176.5256457364042 194.3622319791535 114.33009582845372 C 0.0 **** -0.24
8502 H 175.56527375155292 194.48714378794872 114.8301160862267 H 0.0 **** 0.06
8503 H 177.28513774297107 194.09143752125613 115.06365893019893 H 0.0 **** 0.06
8504 H 176.80602194995066 195.29615921488607 113.84389766135547 H 0.0 **** 0.06
8505 H 176.44558598329075 193.57291857286512 113.58244125937978 H 0.0 **** 0.06
8506 C 213.19182355238308 34.04278680098821 19.913345376291815 C 0.0 **** -0.24
8507 H 213.38353581308235 32.97050886736416 19.95109467843072 H 0.0 **** 0.06
8508 H 212.15592664941033 34.237087465303446 20.190955580290677 H 0.0 **** 0.06
8509 H 213.3725191921005 34.40837409010648 18.90235349112892 H 0.0 **** 0.06
8510 H 213.85674829376458 34.55421991343877 20.609129700590486 H 0.0 **** 0.06
8511 C 201.95682938142056 43.12699024421002 139.1789069516277 C 0.0 **** -0.24
8512 H 201.8821793059953 42.10161931008028 138.81682079839283 H 0.0 **** 0.06
8513 H 202.4049974049133 43.130071992411416 140.17196107103126 H 0.0 **** 0.06
8514 H 200.96062246384173 43.567413816050106 139.22706741058622 H 0.0 **** 0.06
8515 H 202.57763325946306 43.70827094505259 138.49676117116252 H 0.0 **** 0.06
8516 C 131.78993909749855 180.5160435467289 66.83791713317547 C 0.0 **** -0.24
8517 H 132.84010671375202 180.71301926632017 67.05295692177751 H 0.0 **** 0.06
8518 H 131.2563461658176 181.4621712346686 66.73852615499933 H 0.0 **** 0.06
8519 H 131.35535317358313 179.93664964782965 67.65169556800817 H 0.0 **** 0.06
8520 H 131.70884360620948 179.953678758501 65.90786233227496 H 0.0 **** 0.06
8521 C 188.2247556424718 199.93255780207542 209.67207024859027 C 0.0 **** -0.24
8522 H 187.36039858146347 199.28014163965855 209.5480114253516 H 0.0 **** 0.06
8523 H 189.07509003925057 199.34566118849983 210.02084146006746 H 0.0 **** 0.06
8524 H 187.99275596440694 200.70725590786896 210.4026498538763 H 0.0 **** 0.06
8525 H 188.46970283201267 200.39544111704396 208.7158581983773 H 0.0 **** 0.06
8526 C 151.22949069102916 214.87700910924042 192.1866719199491 C 0.0 **** -0.24
8527 H 150.46883095720656 215.6516720671142 192.2832257358862 H 0.0 **** 0.06
8528 H 150.75215427681303 213.92987948497523 191.93561816096351 H 0.0 **** 0.06
8529 H 151.7661705061735 214.7762794778941 193.12998410874633 H 0.0 **** 0.06
8530 H 151.92963970659662 215.15226803921627 191.39724082289897 H 0.0 **** 0.06
8531 C 59.34248807738527 52.956507812349784 207.58939339689474 C 0.0 **** -0.24
8532 H 58.42720129169163 53.50467411235675 207.3670369884059 H 0.0 **** 0.06
8533 H 60.05871691787303 53.10079003954222 206.7795931311586 H 0.0 **** 0.06
8534 H 59.11556146977372 51.89561107029881 207.68991193632814 H 0.0 **** 0.06
8535 H 59.76919297917314 53.326770649578506 208.52212161960765 H 0.0 **** 0.06
8536 C 145.12885009849853 85.72747797308622 56.192803112280444 C 0.0 **** -0.24
8537 H 145.96346204015487 86.25386170056527 55.72945912591635 H 0.0 **** 0.06
8538 H 144.46599611710076 85.34441957460746 55.4166482077205 H 0.0 **** 0.06
8539 H 144.57861370473796 86.41450323258965 56.83486367185165 H 0.0 **** 0.06
8540 H 145.50883071679732 84.89808005714133 56.78888648809166 H 0.0 **** 0.06
8541 C 154.79736421726025 74.755614736188 166.08635277161432 C 0.0 **** -0.24
8542 H 153.7995873446836 75.18103961570034 165.98185134916372 H 0.0 **** 0.06
8543 H 155.20192539459188 75.01408257627233 167.06508317436933 H 0.0 **** 0.06
8544 H 155.44664650543112 75.1563971329447 165.30700268072874 H 0.0 **** 0.06
8545 H 154.74201486615513 73.67130930202131 165.99031245259093 H 0.0 **** 0.06
8546 C 188.85458818240528 239.52578707867377 195.97385732610545 C 0.0 **** -0.24
8547 H 188.0138868870025 239.25760995404306 196.61307944946827 H 0.0 **** 0.06
8548 H 189.48445421064645 240.25193941180999 196.48748281422013 H 0.0 **** 0.06
8549 H 188.48114833802836 239.9583834451417 195.0455434578769 H 0.0 **** 0.06
8550 H 189.43785774588844 238.6325251105274 195.74845712724817 H 0.0 **** 0.06
8551 C 32.97364206291408 11.483087481676506 54.693577560206165 C 0.0 **** -0.24
8552 H 33.35896004276587 11.877277962026682 53.75339593642917 H 0.0 **** 0.06
8553 H 33.7269104270039 11.600619110298425 55.472780781281756 H 0.0 **** 0.06
8554 H 32.735554815173444 10.425911014616844 54.57406624792094 H 0.0 **** 0.06
8555 H 32.07186836425451 12.028574553370248 54.97345544362503 H 0.0 **** 0.06
8556 C 33.43562958079386 5.668929594817939 205.1575065258895 C 0.0 **** -0.24
8557 H 32.350330680293354 5.617471675778802 205.24527297381843 H 0.0 **** 0.06
8558 H 33.77314669805972 6.674113608286092 205.41327376287856 H 0.0 **** 0.06
8559 H 33.72862555683557 5.4363649692613905 204.13322061283773 H 0.0 **** 0.06
8560 H 33.88923552335811 4.9482971139315595 205.83768594459278 H 0.0 **** 0.06
8561 C 36.60361346200453 195.4664368696682 234.74334574306897 C 0.0 **** -0.24
8562 H 35.52751853484189 195.62003237821483 234.8061284742348 H 0.0 **** 0.06
8563 H 37.116630591971216 196.26818120237823 235.275099468598 H 0.0 **** 0.06
8564 H 36.91117053684334 195.47014416641485 233.6972671234873 H 0.0 **** 0.06
8565 H 36.86112171617211 194.50832575104516 235.1938045576982 H 0.0 **** 0.06
8566 C 211.99436980595777 247.33946418462088 130.67230133360877 C 0.0 **** -0.24
8567 H 211.027169468072 247.03580370858515 131.073218274929 H 0.0 **** 0.06
8568 H 212.066319491672 247.0333066189708 129.62841419329558 H 0.0 **** 0.06
8569 H 212.79096647978878 246.8649300217819 131.24605968415526 H 0.0 **** 0.06
8570 H 212.0922240469975 248.42267912960807 130.74125418308105 H 0.0 **** 0.06
8571 C 69.91718387090674 94.04626996139223 40.569371003352074 C 0.0 **** -0.24
8572 H 70.95145157151904 93.76636086512505 40.768980092331475 H 0.0 **** 0.06
8573 H 69.34050445770748 93.15498923678851 40.32423413754768 H 0.0 **** 0.06
8574 H 69.88482225909678 94.74270850425802 39.731414171207376 H 0.0 **** 0.06
8575 H 69.49301454931535 94.52283834059665 41.453617317260154 H 0.0 **** 0.06
8576 C 217.1088429475592 58.68767433583528 14.961381874932997 C 0.0 **** -0.24
8577 H 218.14566403703907 58.94749817431443 15.173453005369495 H 0.0 **** 0.06
8578 H 216.48769247805137 58.944409515535455 15.820631972265858 H 0.0 **** 0.06
8579 H 217.034139402412 57.61882591433246 14.765167742381308 H 0.0 **** 0.06
8580 H 216.76697977931846 59.24273760605627 14.086983840123423 H 0.0 **** 0.06
8581 C 221.01709380949148 116.47357128968457 139.94502333670988 C 0.0 **** -0.24
8582 H 221.50761001066726 116.57261752831366 140.91345055114454 H 0.0 **** 0.06
8583 H 221.7489808302143 116.16665796957119 139.1966349417065 H 0.0 **** 0.06
8584 H 220.58280390554737 117.43086825391083 139.6584201937501 H 0.0 **** 0.06
8585 H 220.2297749107834 115.72274582190855 140.0122367131533 H 0.0 **** 0.06
8586 C 130.57915883335855 228.94380439743463 179.97833108487208 C 0.0 **** -0.24
8587 H 131.27632962961871 229.1559703086818 180.7885557885079 H 0.0 **** 0.06
8588 H 130.23614548213067 227.91187588023502 180.0558936382447 H 0.0 **** 0.06
8589 H 131.0797410409716 229.0899630617248 179.02104968968712 H 0.0 **** 0.06
8590 H 129.72506765244438 229.6175331668157 180.0485761639198 H 0.0 **** 0.06
8591 C 68.46729680556089 111.13568545616806 53.03946804712494 C 0.0 **** -0.24
8592 H 67.90205718729297 111.69233278026172 53.78590725040823 H 0.0 **** 0.06
8593 H 69.4951560923646 111.50010907562506 53.014967053973166 H 0.0 **** 0.06
8594 H 68.00932024724773 111.27344209769643 52.06049453414052 H 0.0 **** 0.06
8595 H 68.4638334502695 110.07608250028983 53.29658700343472 H 0.0 **** 0.06
8596 C 10.096669501013338 107.60342122962095 95.82928927053197 C 0.0 **** -0.24
8597 H 10.145256195579378 108.39817164905466 95.08407743157417 H 0.0 **** 0.06
8598 H 9.08049501303455 107.52836033022191 96.21432021052058 H 0.0 **** 0.06
8599 H 10.780143862060612 107.83091442375297 96.64753569828815 H 0.0 **** 0.06
8600 H 10.383521602250681 106.65770999940713 95.36914178014266 H 0.0 **** 0.06
8601 C 61.36051087907333 183.13925368475168 57.900033588974765 C 0.0 **** -0.24
8602 H 62.219145293154725 183.6228167714151 57.432612721340064 H 0.0 **** 0.06
8603 H 61.07516752342292 182.26434439825803 57.31697744539346 H 0.0 **** 0.06
8604 H 60.52564675999878 183.8392669839651 57.937394740970575 H 0.0 **** 0.06
8605 H 61.623450655530036 182.8333016885544 58.91227743904872 H 0.0 **** 0.06
8606 C 24.704464640366922 192.39574580204595 84.46437131165729 C 0.0 **** -0.24
8607 H 25.709760259235935 192.6531559039451 84.79822356858367 H 0.0 **** 0.06
8608 H 24.708391631967146 192.2388822572296 83.3863513847017 H 0.0 **** 0.06
8609 H 24.020204658190124 193.20786743564526 84.71144883973619 H 0.0 **** 0.06
8610 H 24.37919599186202 191.48318973507224 84.96343472978026 H 0.0 **** 0.06
8611 C 237.1118654026648 89.66678757101832 151.68668564127734 C 0.0 **** -0.24
8612 H 237.9556894312346 90.000587661146 152.29058801604293 H 0.0 **** 0.06
8613 H 236.24977704556048 90.30396636678287 151.88285753446945 H 0.0 **** 0.06
8614 H 236.86904920336312 88.6361887327675 151.94195584915678 H 0.0 **** 0.06
8615 H 237.37594914134624 89.72792264786412 150.63051337364442 H 0.0 **** 0.06
8616 C 180.7666082634243 62.93379422308604 63.676819537308575 C 0.0 **** -0.24
8617 H 181.28788365866865 63.226229034728874 64.58730643677319 H 0.0 **** 0.06
8618 H 181.0313922160797 63.61749578105909 62.87035614351612 H 0.0 **** 0.06
8619 H 179.6902078403976 62.971633194383685 63.846789884597854 H 0.0 **** 0.06
8620 H 181.055427309991 61.91840572465745 63.40199715336584 H 0.0 **** 0.06
8621 C 136.2021251555441 245.54147435975995 144.2046150478343 C 0.0 **** -0.24
8622 H 137.10125499713666 244.9252041269028 144.21543629650913 H 0.0 **** 0.06
8623 H 135.5967572246149 245.28575894835734 143.33454156054674 H 0.0 **** 0.06
8624 H 136.48415531559758 246.59312151546845 144.1547370298987 H 0.0 **** 0.06
8625 H 135.6268954585441 245.36255051744513 145.1133716872138 H 0.0 **** 0.06
8626 C 157.92060437132537 153.760767890903 211.31508664508127 C 0.0 **** -0.24
8627 H 157.1114110042103 153.38367308829984 210.69126042365272 H 0.0 **** 0.06
8628 H 158.17728810665062 154.77398236611563 211.0038223382802 H 0.0 **** 0.06
8629 H 158.79310404399834 153.11570933120808 211.20859086771367 H 0.0 **** 0.06
8630 H 157.60101188761078 153.7706270679353 212.35767046468143 H 0.0 **** 0.06
8631 C 11.671249511817194 74.99643777018778 101.92826289655383 C 0.0 **** -0.24
8632 H 11.023822209518286 74.88336976793116 102.797330831538 H 0.0 **** 0.06
8633 H 11.286243734451503 75.7915848511661 101.28978874641038 H 0.0 **** 0.06
8634 H 11.695471064961652 74.06102664571867 101.36992079167518 H 0.0 **** 0.06
8635 H 12.678950498160646 75.24870158299387 102.25727543821901 H 0.0 **** 0.06
8636 C 128.160446642899 123.46356743362881 178.46107474807758 C 0.0 **** -0.24
8637 H 127.55409466733883 124.11899651513201 179.0865726087886 H 0.0 **** 0.06
8638 H 127.75638552311318 123.45191650943698 177.44898214712967 H 0.0 **** 0.06
8639 H 128.14347634096552 122.45349687105974 178.87168654353286 H 0.0 **** 0.06
8640 H 129.18678293594945 123.82991698642874 178.4392713697366 H 0.0 **** 0.06
8641 C 13.179776709934728 231.9187796609609 211.16911570351317 C 0.0 **** -0.24
8642 H 13.778288744990292 231.4520211157515 211.95092473752368 H 0.0 **** 0.06
8643 H 12.922603342246148 231.17465670062506 210.41520493344115 H 0.0 **** 0.06
8644 H 13.75208941790541 232.72371726029678 210.70678875715078 H 0.0 **** 0.06
8645 H 12.267314865950553 232.32619844738488 211.60418452846923 H 0.0 **** 0.06
8646 C 246.29429760928207 196.78885946542965 35.20294312972487 C 0.0 **** -0.24
8647 H 246.58751598214343 196.04991699992894 34.45677988078128 H 0.0 **** 0.06
8648 H 246.75880475562354 196.54274176831993 36.15855799630208 H 0.0 **** 0.06
8649 H 245.21027902456632 196.7821764383574 35.31261356830694 H 0.0 **** 0.06
8650 H 246.62111902999084 197.77758370310826 34.88304205684743 H 0.0 **** 0.06
8651 C 207.9577465496292 174.02687241283448 36.13460139833275 C 0.0 **** -0.24
8652 H 207.22719592132415 174.57740321908574 36.728692465238666 H 0.0 **** 0.06
8653 H 208.32046838752638 174.66184515480109 35.326487513144755 H 0.0 **** 0.06
8654 H 207.4888762230073 173.13729700626686 35.71612228962091 H 0.0 **** 0.06
8655 H 208.79317033576592 173.7329826343868 36.769970160322515 H 0.0 **** 0.06
8656 C 188.89591353932403 142.62340686092386 226.092635420427 C 0.0 **** -0.24
8657 H 188.71013693664952 142.15812089438953 227.06104163644966 H 0.0 **** 0.06
8658 H 189.81529194070433 143.20746003283998 226.14081033379256 H 0.0 **** 0.06
8659 H 188.06139780559852 143.27758621104965 225.8377796790206 H 0.0 **** 0.06
8660 H 188.99610832014682 141.84928533504487 225.33122984698838 H 0.0 **** 0.06
8661 C 137.38821828390087 22.426388985372284 128.1319107926598 C 0.0 **** -0.24
8662 H 137.42632859385134 23.515279373463784 128.08099014974877 H 0.0 **** 0.06
8663 H 137.20616495603946 22.02307526681085 127.13595537413684 H 0.0 **** 0.06
8664 H 136.58276983040167 22.123584010778075 128.80080503152303 H 0.0 **** 0.06
8665 H 138.33698662764544 22.047918693207464 128.51134514770987 H 0.0 **** 0.06
8666 C 37.3341403882511 81.72605419357433 72.88776583997262 C 0.0 **** -0.24
8667 H 38.1391205824214 81.56487218590738 73.60483544400427 H 0.0 **** 0.06
8668 H 36.3839358531913 81.79945771072212 73.4179449102723 H 0.0 **** 0.06
8669 H 37.29755635798145 80.89002358959257 72.18880088080388 H 0.0 **** 0.06
8670 H 37.51654367565571 82.64934484421613 72.33886787700706 H 0.0 **** 0.06
8671 C 36.31792865085461 47.84256246686665 49.41492464459489 C 0.0 **** -0.24
8672 H 36.616782204043346 48.82532737069731 49.78159927023458 H 0.0 **** 0.06
8673 H 36.96088662538338 47.554408273724206 48.583164598380705 H 0.0 **** 0.06
8674 H 35.28174298935059 47.88062257910772 49.07747497344795 H 0.0 **** 0.06
8675 H 36.41168512705096 47.11218718136351 50.2180505539296 H 0.0 **** 0.06
8676 C 70.87329283671673 195.11065829632844 54.04590767128687 C 0.0 **** -0.24
8677 H 71.52518720084629 195.183700875476 54.916705060719806 H 0.0 **** 0.06
8678 H 71.30206795566914 195.68354322508856 53.2237475142924 H 0.0 **** 0.06
8679 H 69.89006499488454 195.51021697984652 54.29348883861482 H 0.0 **** 0.06
8680 H 70.77747044367408 194.0665212450412 53.75093743599518 H 0.0 **** 0.06
8681 C 149.32103978896757 21.118848463777297 94.50033493127088 C 0.0 **** -0.24
8682 H 149.1387160810536 21.101860349998034 93.42601466496149 H 0.0 **** 0.06
8683 H 150.34403927008015 21.443750366849002 94.69090876747887 H 0.0 **** 0.06
8684 H 149.17458535714854 20.11846672103549 94.90905249700342 H 0.0 **** 0.06
8685 H 148.62535385581884 21.81093417183328 94.97620575087683 H 0.0 **** 0.06
8686 C 67.99033833526778 235.84456209957767 102.13121507180074 C 0.0 **** -0.24
8687 H 67.6832597819058 235.84522018995358 103.17730632160834 H 0.0 **** 0.06
8688 H 67.31336731516373 235.21437867042044 101.55485004173218 H 0.0 **** 0.06
8689 H 69.00557845999779 235.45534474501392 102.05147227546362 H 0.0 **** 0.06
8690 H 67.95991117769168 236.86185061895577 101.74274909916866 H 0.0 **** 0.06
8691 C 186.92759366606165 222.24768882863253 55.42413882368666 C 0.0 **** -0.24
8692 H 187.83897029928397 222.68563605480952 55.83179607346412 H 0.0 **** 0.06
8693 H 186.32684137991146 223.02932239879556 54.95815789017152 H 0.0 **** 0.06
8694 H 186.35889597757256 221.78118602957585 56.22778341851222 H 0.0 **** 0.06
8695 H 187.18808611350602 221.49687963436673 54.67884170352352 H 0.0 **** 0.06
8696 C 138.13851464304986 74.71528535529336 199.24401721861224 C 0.0 **** -0.24
8697 H 139.06239450529068 75.20557004956538 198.9359547332302 H 0.0 **** 0.06
8698 H 138.35141632858694 74.01833980156258 200.05409210927942 H 0.0 **** 0.06
8699 H 137.71713682985177 74.17169001653386 198.39753601402606 H 0.0 **** 0.06
8700 H 137.42581338365204 75.46548495919859 199.58589882613424 H 0.0 **** 0.06
8701 C 213.25032326484376 195.95452985208257 31.56714083973428 C 0.0 **** -0.24
8702 H 213.36198677465387 194.87643548813838 31.452959540679984 H 0.0 **** 0.06
8703 H 212.192351926223 196.20215486074045 31.65979115834473 H 0.0 **** 0.06
8704 H 213.66502100079202 196.457752149736 30.693436839224788 H 0.0 **** 0.06
8705 H 213.78125848900152 196.28204241706268 32.460802897519656 H 0.0 **** 0.06
8706 C 85.1423671860997 121.45209515780004 224.87771688555185 C 0.0 **** -0.24
8707 H 85.9957060165521 121.8738921579251 224.34692813511418 H 0.0 **** 0.06
8708 H 85.48251380604555 120.64405263639907 225.52635017318184 H 0.0 **** 0.06
8709 H 84.42258679791814 121.06269137193306 224.15779574233477 H 0.0 **** 0.06
8710 H 84.67075014383266 122.22879240543742 225.4805297332724 H 0.0 **** 0.06
8711 C 60.04042431531286 9.199154886361839 183.62330029403637 C 0.0 **** -0.24
8712 H 60.47325022385729 10.16647237378119 183.87879233417203 H 0.0 **** 0.06
8713 H 59.76071881249325 9.194488861475094 182.56965679072792 H 0.0 **** 0.06
8714 H 59.15642274789434 9.023281732566588 184.23523363963648 H 0.0 **** 0.06
8715 H 60.77270667389371 8.413561333399059 183.80824050326862 H 0.0 **** 0.06
8716 C 223.51479499869947 64.29137111090063 108.26142608653325 C 0.0 **** -0.24
8717 H 223.64793452258306 64.99892363530142 109.07943149939956 H 0.0 **** 0.06
8718 H 222.58029526896192 63.746767091101646 108.40167693295544 H 0.0 **** 0.06
8719 H 224.34649230146232 63.58739796280642 108.25029209481391 H 0.0 **** 0.06
8720 H 223.4834132880997 64.8311948453161 107.31498692132769 H 0.0 **** 0.06
8721 C 230.62350181561234 28.452429213262462 148.53082099682857 C 0.0 **** -0.24
8722 H 230.27494047757807 29.38539438157254 148.97509069983386 H 0.0 **** 0.06
8723 H 229.7912038271681 27.752161833600383 148.45922333195543 H 0.0 **** 0.06
8724 H 231.40680797926137 28.023328516984193 149.1541504420791 H 0.0 **** 0.06
8725 H 231.01887284224318 28.64994114562485 147.53491118775713 H 0.0 **** 0.06
8726 C 185.73649766416932 185.7609523891212 165.7985293126065 C 0.0 **** -0.24
8727 H 185.93151746983614 186.0731018000852 166.8239192764366 H 0.0 **** 0.06
8728 H 184.66795754051947 185.827197924319 165.5951034123969 H 0.0 **** 0.06
8729 H 186.06994883935775 184.7314135058857 165.66231042170892 H 0.0 **** 0.06
8730 H 186.2786939683479 186.41153703811327 165.11238111386066 H 0.0 **** 0.06
8731 C 226.5491823346665 2.4299093058512256 20.557250632259212 C 0.0 **** -0.24
8732 H 227.5325368072234 2.62832135636134 20.981699914349093 H 0.0 **** 0.06
8733 H 225.9512283410824 3.342403123179423 20.582778081381974 H 0.0 **** 0.06
8734 H 226.0525678846594 1.6532287882604635 21.139044438542868 H 0.0 **** 0.06
8735 H 226.65924435467505 2.0969109775634536 19.5250708819124 H 0.0 **** 0.06
8736 C 36.75259349423226 95.48927676635978 48.47423855122807 C 0.0 **** -0.24
8737 H 37.11082988118639 94.58214994675706 48.960017497274436 H 0.0 **** 0.06
8738 H 37.539943883456814 95.89824316247737 47.84059636033666 H 0.0 **** 0.06
8739 H 36.478491386098796 96.22364154766524 49.23272651235362 H 0.0 **** 0.06
8740 H 35.87942402306446 95.25540981857324 47.86444932307464 H 0.0 **** 0.06
8741 C 109.29435815319474 64.68326625177085 20.361716692492067 C 0.0 **** -0.24
8742 H 109.84724334268807 65.61471820659372 20.23925529493171 H 0.0 **** 0.06
8743 H 109.46984447172599 64.04127182755698 19.49819293171123 H 0.0 **** 0.06
8744 H 108.22973739453019 64.90133232436372 20.442459440086537 H 0.0 **** 0.06
8745 H 109.6306944729572 64.17703410871187 21.265808199732845 H 0.0 **** 0.06
8746 C 2.9193474149869445 235.6835895080245 79.9280399886884 C 0.0 **** -0.24
8747 H 4.007400839893023 235.67529608003622 79.98331676291843 H 0.0 **** 0.06
8748 H 2.5930831805379597 236.52603782581446 79.31655076593395 H 0.0 **** 0.06
8749 H 2.5055429569240744 235.78249500833698 80.93182091414968 H 0.0 **** 0.06
8750 H 2.569872015436573 234.7531306646739 79.48037174450192 H 0.0 **** 0.06
8751 C 24.632458635621447 51.79972975515403 31.81782521078388 C 0.0 **** -0.24
8752 H 24.279863725095794 50.85115153194151 32.223627822109975 H 0.0 **** 0.06
8753 H 24.707913031646754 52.53270459874095 32.62147444310499 H 0.0 **** 0.06
8754 H 23.929319045040813 52.15585365839485 31.065553290927582 H 0.0 **** 0.06
8755 H 25.61171203815205 51.658436914135606 31.361806939658024 H 0.0 **** 0.06
8756 C 245.50159763661307 214.88999648497605 60.59432040776721 C 0.0 **** -0.24
8757 H 245.4236874102898 215.6030923085514 61.41534228167973 H 0.0 **** 0.06
8758 H 244.5295808839901 214.7829369888932 60.11237925961106 H 0.0 **** 0.06
8759 H 245.8231689415707 213.9228882543116 60.98243269446817 H 0.0 **** 0.06
8760 H 246.2299483392223 215.25017327092894 59.868222274264156 H 0.0 **** 0.06
8761 C 110.38487813125818 234.97852467217473 204.41199886014178 C 0.0 **** -0.24
8762 H 110.6628102019373 233.9248077420484 204.4064347447768 H 0.0 **** 0.06
8763 H 110.25001869039082 235.32390485857195 203.38670376458694 H 0.0 **** 0.06
8764 H 111.1727952654941 235.559687186584 204.89051457044212 H 0.0 **** 0.06
8765 H 109.45318460241327 235.10512134468635 204.96326015804533 H 0.0 **** 0.06
8766 C 134.64741555526265 209.36733347274762 214.23289534875545 C 0.0 **** -0.24
8767 H 133.82541615328816 208.6848386063391 214.44612831599116 H 0.0 **** 0.06
8768 H 134.26012191012862 210.25669219265924 213.73494125779192 H 0.0 **** 0.06
8769 H 135.37101845271704 208.87310273395047 213.58284272367342 H 0.0 **** 0.06
8770 H 135.13296031441664 209.6539431851812 215.1649477690731 H 0.0 **** 0.06
8771 C 197.49674447308178 61.24733356854128 203.7555194976204 C 0.0 **** -0.24
8772 H 197.4784001435497 61.25476263973343 202.6652012532189 H 0.0 **** 0.06
8773 H 198.03370370842808 60.36395230098469 204.10238242950322 H 0.0 **** 0.06
8774 H 196.4757238124538 61.22440495403646 204.13456519994895 H 0.0 **** 0.06
8775 H 197.9990106821612 62.14411737908756 204.1158568454023 H 0.0 **** 0.06
8776 C 186.38557652014748 59.91648907309323 231.36848208324955 C 0.0 **** -0.24
8777 H 185.98479489465535 59.78541643764919 232.374501287476 H 0.0 **** 0.06
8778 H 185.68503796309443 59.50197323510463 230.6428493048382 H 0.0 **** 0.06
8779 H 187.34105102805415 59.39795845878052 231.28857565878104 H 0.0 **** 0.06
8780 H 186.53027756632815 60.9784550853897 231.17084007910694 H 0.0 **** 0.06
8781 C 113.23828133432536 150.07806731860094 247.23778160484923 C 0.0 **** -0.24
8782 H 112.90443455870425 151.11022799977044 247.13355481596238 H 0.0 **** 0.06
8783 H 112.37594007532087 149.41198336057215 247.20302118364305 H 0.0 **** 0.06
8784 H 113.75213459937459 149.95747430328944 248.19133900393115 H 0.0 **** 0.06
8785 H 113.92072296291079 149.83289748369685 246.42458621926963 H 0.0 **** 0.06
8786 C 133.46488312486065 213.51219786145487 158.8768556953947 C 0.0 **** -0.24
8787 H 132.40766578408667 213.73931045062588 159.0139904290785 H 0.0 **** 0.06
8788 H 133.83693808548963 212.97488991414573 159.74865890481715 H 0.0 **** 0.06
8789 H 134.02227259731882 214.44088793293815 158.75644684300238 H 0.0 **** 0.06
8790 H 133.59093351137642 212.8950716792323 157.98792648961037 H 0.0 **** 0.06
8791 C 240.3157659044252 58.70791761921012 119.45556785708396 C 0.0 **** -0.24
8792 H 240.16844672902624 57.63145573985602 119.36558754558084 H 0.0 **** 0.06
8793 H 239.36364602112656 59.186829265612374 119.68586535996928 H 0.0 **** 0.06
8794 H 240.7024394739967 59.10149465977133 118.51569274320178 H 0.0 **** 0.06
8795 H 241.02783034288788 58.91066301656332 120.25515844131078 H 0.0 **** 0.06
8796 C 119.8450439351167 42.32277684680136 105.31856628618732 C 0.0 **** -0.24
8797 H 119.32265344223828 42.233746423231224 104.36592924725204 H 0.0 **** 0.06
8798 H 120.30973380775472 43.306962035738394 105.3868481730602 H 0.0 **** 0.06
8799 H 120.61309167547904 41.55275381621118 105.38475360583166 H 0.0 **** 0.06
8800 H 119.13350321641988 42.199139886850304 106.13520407642025 H 0.0 **** 0.06
8801 C 47.83447338846116 75.78935128289137 58.242494054313966 C 0.0 **** -0.24
8802 H 46.867992947116036 76.15066149681053 58.59261267164587 H 0.0 **** 0.06
8803 H 47.750132933374445 74.73791624055801 57.965105116598664 H 0.0 **** 0.06
8804 H 48.57235599201651 75.89871966504651 59.03626314782855 H 0.0 **** 0.06
8805 H 48.14613121160134 76.37035761757082 57.37417924106194 H 0.0 **** 0.06
8806 C 98.08761858185326 175.86874192095695 141.41973681395905 C 0.0 **** -0.24
8807 H 97.6451104869997 176.47920118485573 140.63292385221516 H 0.0 **** 0.06
8808 H 98.90628351118366 175.280426687324 141.00493747552042 H 0.0 **** 0.06
8809 H 97.32990638807254 175.199546370431 141.82926108769237 H 0.0 **** 0.06
8810 H 98.46769041012737 176.51424667170215 142.21118711912234 H 0.0 **** 0.06
8811 C 150.0587865082708 153.09717156691968 54.20219021808347 C 0.0 **** -0.24
8812 H 151.10726896392762 152.8083972781647 54.288807421308974 H 0.0 **** 0.06
8813 H 149.63659952960117 153.23430818300326 55.1972963755658 H 0.0 **** 0.06
8814 H 149.50938046585006 152.31540188776296 53.67776506834829 H 0.0 **** 0.06
8815 H 149.98496308125866 154.03119516805077 53.64378749745251 H 0.0 **** 0.06
8816 C 165.6106390722535 192.40560748843495 86.14044900730502 C 0.0 **** -0.24
8817 H 165.13560216688896 191.4264987455852 86.1938771663198 H 0.0 **** 0.06
8818 H 164.9133144881661 193.16729104372325 86.49275878416776 H 0.0 **** 0.06
8819 H 165.89091426223908 192.6183991141841 85.10903293870268 H 0.0 **** 0.06
8820 H 166.50180747274223 192.4113184122831 86.76812634260497 H 0.0 **** 0.06
8821 C 69.03918510869468 54.798155787593544 123.04940957822188 C 0.0 **** -0.24
8822 H 70.06960313360267 55.07531258122873 122.82808770975265 H 0.0 **** 0.06
8823 H 68.48054359076454 55.6846887710264 123.34938539699584 H 0.0 **** 0.06
8824 H 69.0260045102558 54.06883613386 123.86060111117138 H 0.0 **** 0.06
8825 H 68.58224092302387 54.36193586769656 122.16152627783885 H 0.0 **** 0.06
8826 C 235.20817756902164 227.6454652989368 106.18108564185653 C 0.0 **** -0.24
8827 H 234.1771276341227 227.62437722965666 105.82781110814699 H 0.0 **** 0.06
8828 H 235.25934039494908 227.20426517103283 107.17612050270145 H 0.0 **** 0.06
8829 H 235.55600487087833 228.67719019991102 106.222139951408 H 0.0 **** 0.06
8830 H 235.8370900957763 227.0760675911868 105.49796571347551 H 0.0 **** 0.06
8831 C 182.38485809646698 232.80049796930706 116.28145651388519 C 0.0 **** -0.24
8832 H 181.37487633117155 233.19715634700975 116.18316346176297 H 0.0 **** 0.06
8833 H 182.34852025310767 231.71097494511082 116.2842336931935 H 0.0 **** 0.06
8834 H 182.82276994003385 233.15140134663122 117.21630014423647 H 0.0 **** 0.06
8835 H 182.99273258716877 233.14184167744654 115.4442106510356 H 0.0 **** 0.06
8836 C 72.63194640206456 65.44765754164115 189.1225773293328 C 0.0 **** -0.24
8837 H 73.63883962162569 65.07072757073777 189.3008899946838 H 0.0 **** 0.06
8838 H 72.03579815212888 64.67416526787574 188.63898501121332 H 0.0 **** 0.06
8839 H 72.68223382400075 66.32544173593388 188.47779003173792 H 0.0 **** 0.06
8840 H 72.17246802340307 65.7209435296607 190.07223777025075 H 0.0 **** 0.06
8841 C 104.97081590578168 60.9329070920526 0.3090103747312867 C 0.0 **** -0.24
8842 H 105.85284454950948 61.44966697679044 -0.0698738645301944 H 0.0 **** 0.06
8843 H 105.18098258424783 60.535473799310694 1.3022829053522287 H 0.0 **** 0.06
8844 H 104.71507420905863 60.113434990383695 -0.3635089477299118 H 0.0 **** 0.06
8845 H 104.13658638682926 61.63091889282779 0.36527037319825695 H 0.0 **** 0.06
8846 C 89.49773321881372 47.96204376563804 169.6776021092946 C 0.0 **** -0.24
8847 H 90.38020599829068 47.34562113438881 169.50796279641563 H 0.0 **** 0.06
8848 H 89.7690537351526 48.82652086784131 170.28347923004944 H 0.0 **** 0.06
8849 H 88.7404500499704 47.37538354076463 170.1992011578735 H 0.0 **** 0.06
8850 H 89.10106103744494 48.298424748407 168.71992075328396 H 0.0 **** 0.06
8851 C 131.41070427818363 246.06303850836804 124.14125635048174 C 0.0 **** -0.24
8852 H 131.50805931922176 245.7882648182047 125.19183570969585 H 0.0 **** 0.06
8853 H 131.66563795339616 247.11628692613476 124.01623963646747 H 0.0 **** 0.06
8854 H 130.38456592943808 245.89610983237623 123.81488621088758 H 0.0 **** 0.06
8855 H 132.0869289694175 245.45300991115118 123.54230155488233 H 0.0 **** 0.06
8856 C 130.4310127389795 207.77152295705096 159.6195020050029 C 0.0 **** -0.24
8857 H 130.45043895064876 206.95357901068357 158.89911607057888 H 0.0 **** 0.06
8858 H 130.87942858685977 208.6592109833322 159.1723345046093 H 0.0 **** 0.06
8859 H 130.994892957094 207.48678469648112 160.5069746961001 H 0.0 **** 0.06
8860 H 129.39906893032796 207.98528553190332 159.89747701141977 H 0.0 **** 0.06
8861 C 52.79137586135353 231.91155817359592 61.78341063639755 C 0.0 **** -0.24
8862 H 53.12522311356177 231.64514765849952 62.78601375538517 H 0.0 **** 0.06
8863 H 51.937122067356356 231.2930199761033 61.5073136837247 H 0.0 **** 0.06
8864 H 53.60357201604239 231.7458098638475 61.074992340590256 H 0.0 **** 0.06
8865 H 52.500964679047044 232.96163644895555 61.7644759421249 H 0.0 **** 0.06
8866 C 185.14408655696795 155.19163393388746 179.52608440771905 C 0.0 **** -0.24
8867 H 185.02801147932243 154.53714972266212 178.66193941571413 H 0.0 **** 0.06
8868 H 186.19647571026562 155.23874337134416 179.80638842485433 H 0.0 **** 0.06
8869 H 184.5625645462246 154.79824331421435 180.35921196694426 H 0.0 **** 0.06
8870 H 184.7886203200338 156.19082090478054 179.2745496791871 H 0.0 **** 0.06
8871 C 24.39673480220486 193.42344976254714 180.28298515663553 C 0.0 **** -0.24
8872 H 23.388278544166184 193.5193051134736 180.68673917452202 H 0.0 **** 0.06
8873 H 25.09224800897894 193.9850794912768 180.90719586057202 H 0.0 **** 0.06
8874 H 24.419376497796634 193.8168823899183 179.26679635093734 H 0.0 **** 0.06
8875 H 24.684480706785763 192.37182274349118 180.27219241092445 H 0.0 **** 0.06
8876 C 6.671906667552932 60.04373531304037 43.432576191386005 C 0.0 **** -0.24
8877 H 7.629362882964259 59.697908059701575 43.04415545741122 H 0.0 **** 0.06
8878 H 6.660470803584005 61.134372729212146 43.449512368381164 H 0.0 **** 0.06
8879 H 6.531967824611058 59.66301897614554 44.4442153358161 H 0.0 **** 0.06
8880 H 5.867206930625073 59.6815875902127 42.79297246547 H 0.0 **** 0.06
8881 C 219.87369654036158 104.5530706006328 46.81907456836322 C 0.0 **** -0.24
8882 H 220.8310118554006 104.61482708437345 47.336898955912744 H 0.0 **** 0.06
8883 H 219.18234150748592 103.94572888833224 47.40343133787721 H 0.0 **** 0.06
8884 H 220.01940381877256 104.09761149689038 45.839647714836275 H 0.0 **** 0.06
8885 H 219.4625472574174 105.55498165406848 46.69491306477423 H 0.0 **** 0.06
8886 C 241.1986422683053 0.16303701602127774 56.944752413191225 C 0.0 **** -0.24
8887 H 242.19600944111352 0.24268412574929243 57.37690241839658 H 0.0 **** 0.06
8888 H 240.87472843416234 1.1431530739608462 56.59562077093159 H 0.0 **** 0.06
8889 H 240.5032555567704 -0.20314317521120984 57.7005737981421 H 0.0 **** 0.06
8890 H 241.22179275666184 -0.5320114957229407 56.10530367013911 H 0.0 **** 0.06
8891 C 209.47070716981048 76.25559731317219 144.54376904284834 C 0.0 **** -0.24
8892 H 209.31863499391778 76.15542017257545 143.46961302444532 H 0.0 **** 0.06
8893 H 209.26040027665013 77.28180252638523 144.84681103733064 H 0.0 **** 0.06
8894 H 210.50461390264255 76.00895590712935 144.78810992618003 H 0.0 **** 0.06
8895 H 208.8013802828462 75.57628163382523 145.07093153021495 H 0.0 **** 0.06
8896 C 166.17513908982767 58.25782447246519 216.79828351031787 C 0.0 **** -0.24
8897 H 165.8511857179615 58.15845233337524 215.76181837853275 H 0.0 **** 0.06
8898 H 165.62617348634595 57.55060095759379 217.41983498272046 H 0.0 **** 0.06
8899 H 165.9806036922691 59.273185291425165 217.14401021983326 H 0.0 **** 0.06
8900 H 167.24253247835614 58.04936834639639 216.86609176684692 H 0.0 **** 0.06
8901 C 68.98778664568925 232.53941564003992 184.68546583636407 C 0.0 **** -0.24
8902 H 69.31118386538478 233.33327585557674 184.0120226184858 H 0.0 **** 0.06
8903 H 69.47999839769349 232.658637515988 185.65119577503785 H 0.0 **** 0.06
8904 H 69.25230965804172 231.57135000787179 184.259881440272 H 0.0 **** 0.06
8905 H 67.90765466163714 232.5943991807232 184.81876351166062 H 0.0 **** 0.06
8906 C 184.711301591522 70.99229571327581 79.17063987892777 C 0.0 **** -0.24
8907 H 184.42053724944537 72.04135248278749 79.11138985472226 H 0.0 **** 0.06
8908 H 183.90177359659745 70.36990046334864 78.78876273686481 H 0.0 **** 0.06
8909 H 184.91357324660106 70.72961131796714 80.20904666630435 H 0.0 **** 0.06
8910 H 185.6084721624983 70.82982761772584 78.57334710880997 H 0.0 **** 0.06
8911 C 190.68305769725342 131.29243587779547 119.56918946180139 C 0.0 **** -0.24
8912 H 191.23413873006572 131.6682360420513 118.70638617426872 H 0.0 **** 0.06
8913 H 190.9458851734769 130.24841367419222 119.7407701397768 H 0.0 **** 0.06
8914 H 189.6132991246713 131.37230653452738 119.37867743210674 H 0.0 **** 0.06
8915 H 190.94067286882765 131.8821057800629 120.44888793131216 H 0.0 **** 0.06
8916 C 165.8202728336102 216.66728593934357 85.51121818166501 C 0.0 **** -0.24
8917 H 166.48754556247152 216.72497355727387 84.65125550035552 H 0.0 **** 0.06
8918 H 166.40784704715438 216.5319195045698 86.41855771491672 H 0.0 **** 0.06
8919 H 165.14168300098194 215.82326979030475 85.38728614673678 H 0.0 **** 0.06
8920 H 165.24284056629565 217.58898863434808 85.5850131051235 H 0.0 **** 0.06
8921 C 74.17708966415631 219.8177374820396 149.64903313147997 C 0.0 **** -0.24
8922 H 73.90920133073396 219.83822654733967 148.59262099176854 H 0.0 **** 0.06
8923 H 73.28059704351563 219.65641439165535 150.2480393208354 H 0.0 **** 0.06
8924 H 74.63358152596774 220.76831835916806 149.92572203531367 H 0.0 **** 0.06
8925 H 74.88470974150025 219.0084672433445 149.82782650712477 H 0.0 **** 0.06
8926 C 121.61710981639081 164.8347993882668 115.77983515074808 C 0.0 **** -0.24
8927 H 121.58680102035206 165.0803832976875 116.84135551744492 H 0.0 **** 0.06
8928 H 122.58136138097345 165.12853789639058 115.36612852828333 H 0.0 **** 0.06
8929 H 120.82080905856253 165.36917564561813 115.26030391784596 H 0.0 **** 0.06
8930 H 121.4773349758243 163.76169541686897 115.65186475039906 H 0.0 **** 0.06
8931 C 232.84097278935423 92.10071751500195 220.25894972429217 C 0.0 **** -0.24
8932 H 233.21150288018785 91.07756256900754 220.3295541665708 H 0.0 **** 0.06
8933 H 233.4737883106083 92.75747061855347 220.85530233760832 H 0.0 **** 0.06
8934 H 231.81857868724268 92.14236376202913 220.6339756632662 H 0.0 **** 0.06
8935 H 232.8602591476926 92.42226967777762 219.2177922871697 H 0.0 **** 0.06
8936 C 153.99932484982233 147.64844761937258 199.4905076845567 C 0.0 **** -0.24
8937 H 154.97137459809585 147.46159699433932 199.9450928621484 H 0.0 **** 0.06
8938 H 154.0418213693603 147.40768846653341 198.4279684374638 H 0.0 **** 0.06
8939 H 153.73584792649908 148.69886226317246 199.6147516270171 H 0.0 **** 0.06
8940 H 153.24619430675156 147.0264037341497 199.97463304340997 H 0.0 **** 0.06
8941 C 232.79189577257182 194.6645799364185 98.55668588027544 C 0.0 **** -0.24
8942 H 232.46865702557017 193.7539105508118 98.05250976960832 H 0.0 **** 0.06
8943 H 233.71853934550137 194.47150875831423 99.09720486978159 H 0.0 **** 0.06
8944 H 232.02154154976182 194.98391597137498 99.25858077054562 H 0.0 **** 0.06
8945 H 232.95790434621523 195.44924770957033 97.81823465447627 H 0.0 **** 0.06
8946 C 39.332513667666916 175.13824485064438 158.2159177495478 C 0.0 **** -0.24
8947 H 39.80904568479761 174.45974353952056 158.92387168999426 H 0.0 **** 0.06
8948 H 38.54396571246983 175.69672450495125 158.7213978955384 H 0.0 **** 0.06
8949 H 38.903261360826974 174.56330511243956 157.3949522628636 H 0.0 **** 0.06
8950 H 40.07506019551991 175.83260126056496 157.82344686712872 H 0.0 **** 0.06
8951 C 31.479733706694574 23.848449775164028 193.95320841708778 C 0.0 **** -0.24
8952 H 31.29650443710169 23.040339869546642 194.66149860202768 H 0.0 **** 0.06
8953 H 30.527900676614962 24.259440094498842 193.617957165891 H 0.0 **** 0.06
8954 H 32.03171484068503 23.462912107920545 193.09681709851347 H 0.0 **** 0.06
8955 H 32.0622736233495 24.630811568536274 194.43893141601956 H 0.0 **** 0.06
8956 C 211.96935938740594 39.31002332872308 205.79428835372724 C 0.0 **** -0.24
8957 H 211.73424130905124 38.78162355249813 204.87078159822562 H 0.0 **** 0.06
8958 H 213.04541131550604 39.2782530802656 205.96736774508187 H 0.0 **** 0.06
8959 H 211.45309292257394 38.83215237195209 206.62756253793705 H 0.0 **** 0.06
8960 H 211.64422342302055 40.346848983113546 205.71258321778058 H 0.0 **** 0.06
8961 C 136.89928698978935 186.52725017416566 167.33081832149372 C 0.0 **** -0.24
8962 H 136.44016380614002 187.50461323705514 167.48021683896596 H 0.0 **** 0.06
8963 H 137.4552474569368 186.52684732025202 166.39348787729483 H 0.0 **** 0.06
8964 H 136.12229478864296 185.7627267800916 167.29308659396992 H 0.0 **** 0.06
8965 H 137.57804671443063 186.3146321484486 168.1563383840008 H 0.0 **** 0.06
8966 C 216.63157122437093 78.61341469913214 45.12886669025653 C 0.0 **** -0.24
8967 H 215.56673177893194 78.48241525343224 45.32368116205589 H 0.0 **** 0.06
8968 H 216.97028125289344 79.54691212195914 45.57990400751578 H 0.0 **** 0.06
8969 H 216.80271591203126 78.64610501887984 44.05316719599472 H 0.0 **** 0.06
8970 H 217.18523279700315 77.77964964220538 45.56020560403812 H 0.0 **** 0.06
8971 C 19.49270013674223 200.5127438116805 96.85669875340866 C 0.0 **** -0.24
8972 H 18.955088771301376 199.83768259876916 96.1907055482192 H 0.0 **** 0.06
8973 H 18.998802214909944 200.53275686461308 97.8291049993633 H 0.0 **** 0.06
8974 H 19.497949552884933 201.51588923263995 96.43034177017702 H 0.0 **** 0.06
8975 H 20.518960007872607 200.16464655069979 96.97664269587526 H 0.0 **** 0.06
8976 C 62.44402303987383 137.24110566350365 9.17631253294384 C 0.0 **** -0.24
8977 H 62.49498160731571 137.49727771733555 10.233616960687314 H 0.0 **** 0.06
8978 H 61.66167650455924 136.49764087355365 9.019466791728107 H 0.0 **** 0.06
8979 H 63.402511299192895 136.83390470113304 8.854783063048956 H 0.0 **** 0.06
8980 H 62.21668092678371 138.13598191537957 8.595711429828327 H 0.0 **** 0.06
8981 C 52.786952633712275 244.54749293089245 42.853283918072776 C 0.0 **** -0.24
8982 H 52.996029796795796 244.18145079946115 41.8484344465962 H 0.0 **** 0.06
8983 H 51.73932282053207 244.36596671637682 43.09584028023596 H 0.0 **** 0.06
8984 H 52.99083095866101 245.61657049014684 42.900063786946276 H 0.0 **** 0.06
8985 H 53.421305480765994 244.02378328598854 43.56903125531261 H 0.0 **** 0.06
8986 C 141.78409385889736 54.98675568939896 121.67868956430343 C 0.0 **** -0.24
8987 H 142.47488196302007 54.1484557583951 121.77052415759957 H 0.0 **** 0.06
8988 H 141.11462569117774 54.81392637267433 120.83506406391888 H 0.0 **** 0.06
8989 H 142.34750794116704 55.905131961737624 121.51457021665377 H 0.0 **** 0.06
8990 H 141.1997494133963 55.07731326097772 122.59443104837493 H 0.0 **** 0.06
8991 C 58.40781691369634 59.57573191990781 96.67008855304735 C 0.0 **** -0.24
8992 H 58.20597101021892 58.533913429622686 96.9189600725762 H 0.0 **** 0.06
8993 H 59.4699123287464 59.700525710845284 96.4594385896842 H 0.0 **** 0.06
8994 H 58.126388760213246 60.210556986241585 97.51066092060435 H 0.0 **** 0.06
8995 H 57.82738100624303 59.85747179948149 95.79172111067138 H 0.0 **** 0.06
8996 C 218.75800834326037 75.84620569942808 149.33547458455223 C 0.0 **** -0.24
8997 H 218.04991754283063 76.63908213068942 149.57703400791115 H 0.0 **** 0.06
8998 H 219.48089003541716 75.74564657642486 150.14535389381695 H 0.0 **** 0.06
8999 H 219.27926112718083 76.0944470263972 148.41131586386163 H 0.0 **** 0.06
9000 H 218.22063630238893 74.90590283984815 149.20860693668754 H 0.0 **** 0.06
9001 C 146.61850632449406 122.0340501093502 112.16406867981004 C 0.0 **** -0.24
9002 H 147.56459490898453 122.45808547566375 112.5002114550025 H 0.0 **** 0.06
9003 H 146.12887368657704 122.73251629246656 111.48479373634811 H 0.0 **** 0.06
9004 H 145.97517703763228 121.85155440317541 113.02484060952028 H 0.0 **** 0.06
9005 H 146.80579426582688 121.09380644625955 111.64509791604962 H 0.0 **** 0.06
9006 C 173.6912894652176 233.5809509668789 170.15046425275747 C 0.0 **** -0.24
9007 H 173.29075427340194 234.46773694398513 170.641417160422 H 0.0 **** 0.06
9008 H 174.65400001702153 233.82052218139958 169.69622354628981 H 0.0 **** 0.06
9009 H 172.99799550203255 233.2488732049747 169.3774581639735 H 0.0 **** 0.06
9010 H 173.82329085801138 232.78739210571132 170.88545372756582 H 0.0 **** 0.06
9011 C 59.10554118415868 117.61841811474957 101.98656256768547 C 0.0 **** -0.24
9012 H 58.905785280878376 117.09348510765636 102.92027798376685 H 0.0 **** 0.06
9013 H 59.37402930199676 118.65275186234021 102.2019816952413 H 0.0 **** 0.06
9014 H 58.21502658451047 117.59667023628197 101.35934941827077 H 0.0 **** 0.06
9015 H 59.92973824139892 117.13106611281364 101.46492206496899 H 0.0 **** 0.06
9016 C 85.37672325445723 88.21268619039759 230.05268172969468 C 0.0 **** -0.24
9017 H 84.70380689723197 87.35710286999264 230.00521261086558 H 0.0 **** 0.06
9018 H 84.8378503515579 89.0771385564199 230.43940082903725 H 0.0 **** 0.06
9019 H 85.75287789800862 88.43482408813915 229.05413277948304 H 0.0 **** 0.06
9020 H 86.21307646246115 87.98047886194539 230.71300184149652 H 0.0 **** 0.06
9021 C 238.4406796287742 193.18126846555646 179.78488100820294 C 0.0 **** -0.24
9022 H 239.37157318856748 192.93175485930715 180.2939042964249 H 0.0 **** 0.06
9023 H 238.06615527935628 192.30203293115034 179.2598858044404 H 0.0 **** 0.06
9024 H 238.62186014175245 193.98205907855822 179.0685768996359 H 0.0 **** 0.06
9025 H 237.7031299054206 193.50922699320995 180.5171570323105 H 0.0 **** 0.06
9026 C 106.21866462177144 26.051667792825143 57.46039054334847 C 0.0 **** -0.24
9027 H 106.28590815350157 26.959880884430206 58.05973590409957 H 0.0 **** 0.06
9028 H 107.117987269352 25.45250873633772 57.60700152852931 H 0.0 **** 0.06
9029 H 106.12634361138629 26.316763700118912 56.407175674662 H 0.0 **** 0.06
9030 H 105.3441684903143 25.477131338658154 57.768536554811675 H 0.0 **** 0.06
9031 C 112.93050400920393 223.6107565177556 195.0247359110771 C 0.0 **** -0.24
9032 H 113.314836551671 222.773344951829 194.44212889257443 H 0.0 **** 0.06
9033 H 112.0850266042527 223.2761982566936 195.62718201846408 H 0.0 **** 0.06
9034 H 112.60610122763669 224.40352562404667 194.35051521254036 H 0.0 **** 0.06
9035 H 113.71614640405156 223.98896173254403 195.67911761599953 H 0.0 **** 0.06
9036 C 166.1846558351685 71.55790609842708 131.9336565867669 C 0.0 **** -0.24
9037 H 166.64735257480723 72.40129640278118 131.42093239926848 H 0.0 **** 0.06
9038 H 166.92082255096503 70.7646601438872 132.06382567459974 H 0.0 **** 0.06
9039 H 165.35010616800886 71.18586335226925 131.3391638457226 H 0.0 **** 0.06
9040 H 165.82137130516045 71.88149401392283 132.90804242455292 H 0.0 **** 0.06
9041 C 61.84080106313715 146.7468040925491 68.51696887995544 C 0.0 **** -0.24
9042 H 61.24569702343504 146.64781852865545 69.4246657493828 H 0.0 **** 0.06
9043 H 62.415455852014105 147.67235383823333 68.55852746220168 H 0.0 **** 0.06
9044 H 61.18096955626865 146.76785830872976 67.6502828580843 H 0.0 **** 0.06
9045 H 62.521762834752934 145.89936144809909 68.43562637729539 H 0.0 **** 0.06
9046 C 194.1419708012601 52.25253278647166 161.89882945470262 C 0.0 **** -0.24
9047 H 194.4566255799961 52.6843603071099 160.94890212633507 H 0.0 **** 0.06
9048 H 193.8138507020086 51.22553305150885 161.738747247448 H 0.0 **** 0.06
9049 H 193.3191971782743 52.838175353679134 162.30809209811625 H 0.0 **** 0.06
9050 H 194.9788237943701 52.26284678209315 162.59674653629222 H 0.0 **** 0.06
9051 C 161.23527160878533 63.58673707709457 224.53600174256394 C 0.0 **** -0.24
9052 H 160.55286859228545 64.22923262170107 225.09146385348816 H 0.0 **** 0.06
9053 H 160.74047117544256 62.64130475397607 224.31139579316866 H 0.0 **** 0.06
9054 H 162.12619138682638 63.39796250100579 225.1343383288938 H 0.0 **** 0.06
9055 H 161.51979266327479 64.07805138352293 223.6051550323764 H 0.0 **** 0.06
9056 C 27.694255150133642 234.6810907128438 101.09275009312353 C 0.0 **** -0.24
9057 H 28.615319442859516 235.05247315716548 100.64322899215847 H 0.0 **** 0.06
9058 H 26.851412387577568 234.92011480186562 100.44373457889378 H 0.0 **** 0.06
9059 H 27.54955788716785 235.150720703837 102.06520879845726 H 0.0 **** 0.06
9060 H 27.760542254582276 233.60075380766006 101.21789301612336 H 0.0 **** 0.06
9061 C 82.43105570770956 91.16894391064307 221.55721870385716 C 0.0 **** -0.24
9062 H 82.96197018698817 91.49434461449479 222.45213644971383 H 0.0 **** 0.06
9063 H 81.58814348612955 90.53931958169306 221.84279314921176 H 0.0 **** 0.06
9064 H 83.10910757257594 90.60318043779878 220.91772129402122 H 0.0 **** 0.06
9065 H 82.06515454480811 92.04203181691537 221.0156225171119 H 0.0 **** 0.06
9066 C 62.73641930082704 157.5711085596365 167.59062729864337 C 0.0 **** -0.24
9067 H 63.02173711867579 157.8326739619132 168.6095791385446 H 0.0 **** 0.06
9068 H 63.116454597953094 156.57793066092643 167.35195094766473 H 0.0 **** 0.06
9069 H 63.15795222965434 158.2985394398912 166.8968550924882 H 0.0 **** 0.06
9070 H 61.649587672811634 157.57507891019847 167.50611209150614 H 0.0 **** 0.06
9071 C 187.09149814415156 1.1380488360885295 139.63882460610927 C 0.0 **** -0.24
9072 H 186.41302625388505 0.36861222423445383 140.00738907051905 H 0.0 **** 0.06
9073 H 188.09525898648246 0.7216842483032337 139.5441288425656 H 0.0 **** 0.06
9074 H 187.1090536071829 1.9730768743184228 140.338900706323 H 0.0 **** 0.06
9075 H 186.74936788794466 1.4876603967222053 138.66450473144425 H 0.0 **** 0.06
9076 C 161.69475723531664 156.19681180023306 39.024293647799524 C 0.0 **** -0.24
9077 H 161.4171151899552 155.16822336059525 38.79253236487318 H 0.0 **** 0.06
9078 H 162.2518874835238 156.21994636425623 39.96087426239238 H 0.0 **** 0.06
9079 H 160.79420128028016 156.80260996309013 39.12213597786172 H 0.0 **** 0.06
9080 H 162.31495528942256 156.59496978463577 38.22165353204646 H 0.0 **** 0.06
9081 C 95.12979777806098 65.19005364045393 36.839020108750816 C 0.0 **** -0.24
9082 H 94.84015285252059 65.86824751031119 36.03608769233895 H 0.0 **** 0.06
9083 H 96.1166703631142 65.46807893836746 37.210355554689755 H 0.0 **** 0.06
9084 H 95.15772876954878 64.16932676474545 36.4597180408731 H 0.0 **** 0.06
9085 H 94.40425778257682 65.25698033508675 37.649975166548785 H 0.0 **** 0.06
9086 C 60.493849573131115 31.666595673015195 184.69040725729312 C 0.0 **** -0.24
9087 H 60.37931196472718 31.035399957390766 185.5708654678639 H 0.0 **** 0.06
9088 H 59.74593084804272 31.391427148610305 183.9466946555947 H 0.0 **** 0.06
9089 H 61.490841740043436 31.52788701842229 184.2718047001987 H 0.0 **** 0.06
9090 H 60.3603625929087 32.71082897651877 184.97182260252808 H 0.0 **** 0.06
9091 C 167.50767685494853 48.85364606070428 210.7429110011992 C 0.0 **** -0.24
9092 H 166.4659018205495 49.14884819499545 210.61596986894463 H 0.0 **** 0.06
9093 H 167.88730561685725 49.25769508000715 211.68231665333528 H 0.0 **** 0.06
9094 H 168.09886957280014 49.242071349635495 209.91413327099414 H 0.0 **** 0.06
9095 H 167.5764795250516 47.76600685297163 210.76039569251262 H 0.0 **** 0.06
9096 C 56.774031793630996 50.619296125643004 24.607296385988192 C 0.0 **** -0.24
9097 H 57.1214968452816 49.5938770998262 24.485274180140678 H 0.0 **** 0.06
9098 H 57.30843674595357 51.26821516745797 23.912840482821338 H 0.0 **** 0.06
9099 H 56.96141992951007 50.9473071901387 25.629814355793812 H 0.0 **** 0.06
9100 H 55.704814703722064 50.66680720920692 24.401051192515126 H 0.0 **** 0.06
9101 C 183.0162698679069 10.380629572312174 247.18424037635293 C 0.0 **** -0.24
9102 H 183.76576601938794 11.06761447842024 247.57831249582682 H 0.0 **** 0.06
9103 H 182.02263260289087 10.726414474044873 247.4677987449874 H 0.0 **** 0.06
9104 H 183.18582714670274 9.384526036440604 247.59483708638862 H 0.0 **** 0.06
9105 H 183.09317523028173 10.343735711103207 246.0981483151952 H 0.0 **** 0.06
9106 C 43.76571457876068 106.69680095055196 212.48166472072194 C 0.0 **** -0.24
9107 H 44.50287103624433 107.4698543640454 212.69716956941497 H 0.0 **** 0.06
9108 H 44.0616728808362 105.76782516676562 212.96927547537098 H 0.0 **** 0.06
9109 H 43.70942416821245 106.54060490896796 211.4038693940958 H 0.0 **** 0.06
9110 H 42.79105828094262 107.01043910278119 212.8549337594477 H 0.0 **** 0.06
9111 C 7.012736236272374 170.27201253937145 162.99268759108014 C 0.0 **** -0.24
9112 H 7.954058728004782 169.88416866080166 163.38157273860125 H 0.0 **** 0.06
9113 H 7.142986205282128 171.31382595177448 162.6994567425579 H 0.0 **** 0.06
9114 H 6.245582503771871 170.20409337934993 163.76320345405708 H 0.0 **** 0.06
9115 H 6.708805172808198 169.68518864203617 162.12504641801118 H 0.0 **** 0.06
9116 C 116.23512833049224 163.59667632920923 129.87846848763837 C 0.0 **** -0.24
9117 H 116.8428713935393 162.8215315349123 130.346321558418 H 0.0 **** 0.06
9118 H 116.12257875340649 164.43418282908814 130.5670910447728 H 0.0 **** 0.06
9119 H 115.25302550764383 163.19058117693172 129.635896140828 H 0.0 **** 0.06
9120 H 116.72250856393083 163.93901960288875 128.9654848285416 H 0.0 **** 0.06
9121 C 153.39869500740997 130.0231831702642 188.096727791093 C 0.0 **** -0.24
9122 H 154.08785011625946 129.277411088603 188.49157180662428 H 0.0 **** 0.06
9123 H 152.38194390693528 129.63069565875335 188.1255952034786 H 0.0 **** 0.06
9124 H 153.66884912566766 130.25661449566962 187.06644911714622 H 0.0 **** 0.06
9125 H 153.4563203218306 130.92813645933194 188.70085561557673 H 0.0 **** 0.06
9126 C 143.371601969014 60.016670363440994 112.42276705704344 C 0.0 **** -0.24
9127 H 143.9923422010825 59.38473015219978 113.0572540107056 H 0.0 **** 0.06
9128 H 143.75664436335137 61.036932490547144 112.4398588406437 H 0.0 **** 0.06
9129 H 142.34638815553228 60.00851758808727 112.79328931145119 H 0.0 **** 0.06
9130 H 143.39172058768708 59.63759150703129 111.40124807727386 H 0.0 **** 0.06
9131 C 47.774244283163824 91.28901966979777 181.13676884727548 C 0.0 **** -0.24
9132 H 48.408311994785635 90.44896743085283 181.4202471389472 H 0.0 **** 0.06
9133 H 48.24585320630169 91.84142816347264 180.32356072118927 H 0.0 **** 0.06
9134 H 47.64192440490851 91.94860073867028 181.9944481772756 H 0.0 **** 0.06
9135 H 46.80361925169129 90.91769305808654 180.80989860929293 H 0.0 **** 0.06
9136 C 29.358256732655406 17.59403767065615 119.17737760922168 C 0.0 **** -0.24
9137 H 28.715617529900754 16.87070984948886 118.67515525775809 H 0.0 **** 0.06
9138 H 30.274659992124526 17.10092891159718 119.50318644360902 H 0.0 **** 0.06
9139 H 28.837033749471374 18.002575455950904 120.04303287964669 H 0.0 **** 0.06
9140 H 29.60457932595787 18.400893696321845 118.48686250669004 H 0.0 **** 0.06
9141 C 186.70340985912884 14.172068711582853 204.90342954895598 C 0.0 **** -0.24
9142 H 187.6913517474892 13.866443401566897 204.55877818118893 H 0.0 **** 0.06
9143 H 186.09220630001465 14.45841165552153 204.0482105794948 H 0.0 **** 0.06
9144 H 186.80197297910885 15.021030340110627 205.58124298275948 H 0.0 **** 0.06
9145 H 186.22937872796302 13.342422474691233 205.42801336338795 H 0.0 **** 0.06
9146 C 78.16360381563399 187.25547908333283 51.83859628113041 C 0.0 **** -0.24
9147 H 78.61849217622088 188.24401983887802 51.7835298304781 H 0.0 **** 0.06
9148 H 78.83868158481553 186.57228818534077 52.353589259303504 H 0.0 **** 0.06
9149 H 77.97213045571002 186.88723000064763 50.83129735673671 H 0.0 **** 0.06
9150 H 77.22355476001619 187.31900979281878 52.38639203519844 H 0.0 **** 0.06
9151 C 187.29862188211382 159.61151769376036 114.64120349735731 C 0.0 **** -0.24
9152 H 186.52813445336736 159.1892848064378 113.99532882713643 H 0.0 **** 0.06
9153 H 186.9046693269537 159.72328702470918 115.65123793619563 H 0.0 **** 0.06
9154 H 187.59941136520553 160.5861462271718 114.25824858182901 H 0.0 **** 0.06
9155 H 188.16194860467868 158.94503238544576 114.65928359962936 H 0.0 **** 0.06
9156 C 29.7412733709005 46.93302866940839 160.5854307264626 C 0.0 **** -0.24
9157 H 30.117902442526756 47.81475652967288 161.10419473338916 H 0.0 **** 0.06
9158 H 30.543982127156923 46.48476641684569 159.99988894744874 H 0.0 **** 0.06
9159 H 28.925206603919932 47.22184355331112 159.9234235066052 H 0.0 **** 0.06
9160 H 29.37720458496682 46.21054477795013 161.3165227341633 H 0.0 **** 0.06
9161 C 193.25473879440693 223.47195799558654 110.63453281505718 C 0.0 **** -0.24
9162 H 193.09848467766267 224.39046884120611 110.069348738168 H 0.0 **** 0.06
9163 H 192.47245234174338 223.37153176476062 111.38728181233404 H 0.0 **** 0.06
9164 H 194.22839693536702 223.50748588240586 111.12307366423528 H 0.0 **** 0.06
9165 H 193.2194076942492 222.61891875522613 109.95763597861139 H 0.0 **** 0.06
9166 C 99.08923344022443 211.0570918926066 17.883600673583288 C 0.0 **** -0.24
9167 H 99.13640768562604 212.10203752550692 17.577339702756973 H 0.0 **** 0.06
9168 H 100.08864576613891 210.6229497834013 17.847988801194532 H 0.0 **** 0.06
9169 H 98.43040246681343 210.51032446060663 17.20935465903173 H 0.0 **** 0.06
9170 H 98.70131144963474 210.9946477842945 18.900381295352446 H 0.0 **** 0.06
9171 C 225.70076032486094 2.5286836402623436 222.179301698178 C 0.0 **** -0.24
9172 H 225.68801661622797 2.9824051955832402 221.18779127106467 H 0.0 **** 0.06
9173 H 225.5314496221556 1.455419294596922 222.08808159660225 H 0.0 **** 0.06
9174 H 224.91530792630113 2.9708314333991694 222.79089830696546 H 0.0 **** 0.06
9175 H 226.66919432545336 2.7057491457734244 222.64618921517229 H 0.0 **** 0.06
9176 C 35.25303946450167 163.61523601345186 221.9029160148667 C 0.0 **** -0.24
9177 H 35.409990073115665 162.72816552435307 221.28909761761247 H 0.0 **** 0.06
9178 H 34.55743799379738 164.2867876446623 221.39791345364313 H 0.0 **** 0.06
9179 H 36.20477803490466 164.12429824485608 222.05365719385048 H 0.0 **** 0.06
9180 H 34.83999430489254 163.32212777695975 222.86755937729785 H 0.0 **** 0.06
9181 C 121.49671346260484 206.7777563297496 43.31905769020385 C 0.0 **** -0.24
9182 H 122.03187102860551 207.24907474525514 44.14397338816964 H 0.0 **** 0.06
9183 H 121.29813489152471 207.51869053771304 42.544833163932665 H 0.0 **** 0.06
9184 H 120.55347954375648 206.36976971762553 43.683575558922726 H 0.0 **** 0.06
9185 H 122.10392927663875 205.97314960233135 42.90460318579615 H 0.0 **** 0.06
9186 C 43.80722048458601 169.88924805753228 178.2892658533863 C 0.0 **** -0.24
9187 H 44.27812080600128 169.0103802771245 178.73003890628146 H 0.0 **** 0.06
9188 H 42.916268718205686 170.14875149234985 178.86026452005603 H 0.0 **** 0.06
9189 H 43.52820155697128 169.6729711975284 177.25757048368064 H 0.0 **** 0.06
9190 H 44.507928566064805 170.7242582959576 178.30780392109293 H 0.0 **** 0.06
9191 C 162.71041091543717 152.80059081336864 113.51348129361486 C 0.0 **** -0.24
9192 H 162.34288852546274 151.83972287641615 113.15516208352767 H 0.0 **** 0.06
9193 H 163.44445620743798 152.6367215567489 114.30394822433192 H 0.0 **** 0.06
9194 H 161.8781423944491 153.38405994904682 113.90640296496488 H 0.0 **** 0.06
9195 H 163.17663117200343 153.3410885801332 112.69045675356307 H 0.0 **** 0.06
9196 C 236.84707939847374 62.6018180537788 165.6351950157033 C 0.0 **** -0.24
9197 H 236.93339146340247 63.6738992887158 165.8094351175535 H 0.0 **** 0.06
9198 H 237.83465345317973 62.18717765510675 165.42932270086206 H 0.0 **** 0.06
9199 H 236.19270131128172 62.42343042415513 164.78188338309457 H 0.0 **** 0.06
9200 H 236.42947830337945 62.12221074100296 166.52037675895096 H 0.0 **** 0.06
9201 C 213.33394372040954 232.29161409908033 198.1841212575452 C 0.0 **** -0.24
9202 H 213.09909324457254 232.2097473334557 197.12294612862013 H 0.0 **** 0.06
9203 H 214.37888517843152 232.02793096073015 198.3465654576719 H 0.0 **** 0.06
9204 H 212.69554170806714 231.61251536551907 198.74986621470651 H 0.0 **** 0.06
9205 H 213.1605827862381 233.31509468999957 198.51619057708297 H 0.0 **** 0.06
9206 C 212.2826138246827 156.80310174812007 146.59982335098354 C 0.0 **** -0.24
9207 H 213.17251124370694 156.20016525294372 146.77962249527334 H 0.0 **** 0.06
9208 H 211.48944317699636 156.1705547379423 146.19917613872042 H 0.0 **** 0.06
9209 H 212.51635778140803 157.59112370790123 145.88328044796782 H 0.0 **** 0.06
9210 H 211.95125292471732 157.25153473086218 147.53609007421375 H 0.0 **** 0.06
9211 C 89.7837241273399 216.47425276355168 234.9231088684099 C 0.0 **** -0.24
9212 H 89.08460030637181 215.6414535723348 235.0022288017372 H 0.0 **** 0.06
9213 H 90.71945619799968 216.1226357841118 234.48927876999966 H 0.0 **** 0.06
9214 H 89.9741046947158 216.88392831102203 235.91512436985917 H 0.0 **** 0.06
9215 H 89.35539950550364 217.24870869403523 234.28617040417413 H 0.0 **** 0.06
9216 C 143.3998486595023 141.51320627610528 199.28627608141903 C 0.0 **** -0.24
9217 H 143.53778222352753 142.59345144853518 199.33328957973958 H 0.0 **** 0.06
9218 H 144.20392526714332 141.0207674235088 199.83345279676217 H 0.0 **** 0.06
9219 H 143.4165014097763 141.19031377521972 198.24494198722493 H 0.0 **** 0.06
9220 H 142.4413820684229 141.2498012331311 199.73259226727941 H 0.0 **** 0.06
9221 C 182.10000623479067 38.76510929134973 95.86996722444451 C 0.0 **** -0.24
9222 H 181.69402740157744 38.022311930942294 96.5563299806486 H 0.0 **** 0.06
9223 H 182.27114831564995 38.30500883142639 94.8966463491625 H 0.0 **** 0.06
9224 H 183.04123901724074 39.1469220921924 96.26276282373536 H 0.0 **** 0.06
9225 H 181.3901601379988 39.58639165712896 95.76310104562447 H 0.0 **** 0.06
9226 C 101.41416258863902 237.16276525844467 232.8525905822355 C 0.0 **** -0.24
9227 H 102.1721614316568 236.58454895115133 233.38074228626223 H 0.0 **** 0.06
9228 H 101.64492179175056 238.22519599105607 232.9347349916872 H 0.0 **** 0.06
9229 H 100.43617401992049 236.9673381457855 233.29086465043446 H 0.0 **** 0.06
9230 H 101.40547911660664 236.87371428040288 231.80092537253682 H 0.0 **** 0.06
9231 C 199.51486521439 135.10140109099996 188.29822247707546 C 0.0 **** -0.24
9232 H 198.9367823754623 135.13808717442294 189.22173475884318 H 0.0 **** 0.06
9233 H 200.13878938232557 135.99265934727242 188.22463625927494 H 0.0 **** 0.06
9234 H 198.83592305201356 135.06104295969868 187.44639072639268 H 0.0 **** 0.06
9235 H 200.1482050876789 134.214401585571 188.3013925446759 H 0.0 **** 0.06
9236 C 83.31764086547642 142.4105651928063 106.36510588354284 C 0.0 **** -0.24
9237 H 82.69263789179794 141.53063274428825 106.51928352011856 H 0.0 **** 0.06
9238 H 82.8688020945832 143.04493316848922 105.60067302218121 H 0.0 **** 0.06
9239 H 84.31106890782038 142.0987124386012 106.04225273397063 H 0.0 **** 0.06
9240 H 83.39786912007338 142.9671607590528 107.29875323141962 H 0.0 **** 0.06
9241 C 243.7683549951097 151.23786919154927 109.6112096911871 C 0.0 **** -0.24
9242 H 242.99296331454315 151.99284919799922 109.482946303994 H 0.0 **** 0.06
9243 H 243.46339980281164 150.315940545066 109.11586085182157 H 0.0 **** 0.06
9244 H 243.91637806931607 151.04704296555028 110.67512985311342 H 0.0 **** 0.06
9245 H 244.69994729527417 151.59581341692942 109.17323334021407 H 0.0 **** 0.06
9246 C 59.383630692569255 149.61479013960084 41.99702739341775 C 0.0 **** -0.24
9247 H 59.02560126475052 150.62527361256048 42.19230832405407 H 0.0 **** 0.06
9248 H 59.64574870613765 149.13367072959295 42.93924596037465 H 0.0 **** 0.06
9249 H 60.26306963260399 149.65887470528028 41.35416094068914 H 0.0 **** 0.06
9250 H 58.600161030281214 149.04085783835453 41.501521008782646 H 0.0 **** 0.06
9251 C 170.29377263515897 88.00230521751797 162.9079861657378 C 0.0 **** -0.24
9252 H 170.6984184291545 87.14055860857553 163.4373821591628 H 0.0 **** 0.06
9253 H 171.0568432546257 88.41754196626286 162.25003006051307 H 0.0 **** 0.06
9254 H 169.98464465857208 88.75882875692588 163.62952937404822 H 0.0 **** 0.06
9255 H 169.432897850355 87.69295116495971 162.31558407202803 H 0.0 **** 0.06
9256 C 8.230366986590724 96.75318944337761 53.65270873748011 C 0.0 **** -0.24
9257 H 7.346180674667522 97.02343692089858 53.075367905618535 H 0.0 **** 0.06
9258 H 9.12250202184083 96.92242808195226 53.05003973398223 H 0.0 **** 0.06
9259 H 8.173594557634232 95.70059809416227 53.9310141758277 H 0.0 **** 0.06
9260 H 8.278010254969843 97.36478913611288 54.5528834369814 H 0.0 **** 0.06
9261 C 123.52160086895768 52.43891612054833 46.90884496518649 C 0.0 **** -0.24
9262 H 122.56734403277966 51.98029349787274 46.6502937196212 H 0.0 **** 0.06
9263 H 123.92425147363528 52.95589551501811 46.03782351595717 H 0.0 **** 0.06
9264 H 124.22086968064727 51.6670939917511 47.23039013978428 H 0.0 **** 0.06
9265 H 123.37163899548702 53.1534164832855 47.71878091691522 H 0.0 **** 0.06
9266 C 198.2072788604068 196.0695566018079 133.48361987924005 C 0.0 **** -0.24
9267 H 198.87505318969215 196.38769244166656 134.28420254282847 H 0.0 **** 0.06
9268 H 198.7052374059914 196.1999763670308 132.5221951278813 H 0.0 **** 0.06
9269 H 197.2986749207524 196.6733280998147 133.50716670391947 H 0.0 **** 0.06
9270 H 197.9495967588748 195.02033214016544 133.62117537388053 H 0.0 **** 0.06
9271 C 246.05769940292276 237.98346934477843 212.11706308253196 C 0.0 **** -0.24
9272 H 246.93841936038422 238.0990746200028 212.74865657867076 H 0.0 **** 0.06
9273 H 245.3180104488991 237.37190440349508 212.6347474971394 H 0.0 **** 0.06
9274 H 246.3416639366033 237.49930311665364 211.18317456272607 H 0.0 **** 0.06
9275 H 245.63386811436158 238.96433286243524 211.90312299344396 H 0.0 **** 0.06
9276 C 45.2384131445944 144.6927703724584 151.54723514331647 C 0.0 **** -0.24
9277 H 45.36397344334347 144.57110428625927 150.47127578283852 H 0.0 **** 0.06
9278 H 44.405771846774655 145.3692838250539 151.7414993770262 H 0.0 **** 0.06
9279 H 46.15098361703781 145.10624385738973 151.97540259783298 H 0.0 **** 0.06
9280 H 45.03145006392975 143.72280012842361 152.0010915007284 H 0.0 **** 0.06
9281 C 78.0122889982305 59.18631156999058 222.73954269390092 C 0.0 **** -0.24
9282 H 78.69334086282205 59.17812063289679 221.8878896858404 H 0.0 **** 0.06
9283 H 78.36436815727185 58.482283022225346 223.49331761769147 H 0.0 **** 0.06
9284 H 77.01456633685356 58.89727075910329 222.40840605296918 H 0.0 **** 0.06
9285 H 77.97667975601806 60.18861247819464 223.1659350440616 H 0.0 **** 0.06
9286 C 98.35219206656078 51.39566832928867 105.86869060396637 C 0.0 **** -0.24
9287 H 97.70451156112748 52.02304846419999 106.47969770860934 H 0.0 **** 0.06
9288 H 99.33357610095666 51.863402965225546 105.7819077181232 H 0.0 **** 0.06
9289 H 97.915233741879 51.28008822599537 104.87704488755062 H 0.0 **** 0.06
9290 H 98.45683380080155 50.41612483620537 106.33638840417467 H 0.0 **** 0.06
9291 C 87.51934058262464 34.05631572402527 243.61909129957067 C 0.0 **** -0.24
9292 H 87.48684778855136 35.14126570456729 243.517163228961 H 0.0 **** 0.06
9293 H 88.40171836152066 33.77244238259361 244.19326632313204 H 0.0 **** 0.06
9294 H 87.56723062681337 33.600483070518166 242.62919851605878 H 0.0 **** 0.06
9295 H 86.62301777511692 33.71286914411094 244.1339693671207 H 0.0 **** 0.06
9296 C 124.25246731534835 34.53130087543158 202.2037331967975 C 0.0 **** -0.24
9297 H 124.45351288205848 35.27269166193494 201.42993609287183 H 0.0 **** 0.06
9298 H 123.17720075854737 34.371105651057036 202.28206511835128 H 0.0 **** 0.06
9299 H 124.63781815558528 34.889168619098285 203.15786157681987 H 0.0 **** 0.06
9300 H 124.7413749173217 33.59319577740004 201.94304997837793 H 0.0 **** 0.06
9301 C 193.20659653321007 98.26605360877235 66.39930380901495 C 0.0 **** -0.24
9302 H 192.4508771095513 97.59775858935237 65.9872886602906 H 0.0 **** 0.06
9303 H 192.88028961715793 98.62594040243786 67.37458779447198 H 0.0 **** 0.06
9304 H 193.34695766524797 99.11334300240426 65.72722642012727 H 0.0 **** 0.06
9305 H 194.1480856550229 97.72711056368732 66.50671051080138 H 0.0 **** 0.06
9306 C 118.15115988194944 8.33945743243848 235.8713726078294 C 0.0 **** -0.24
9307 H 117.24518782599623 7.914781731937609 235.4395870740992 H 0.0 **** 0.06
9308 H 118.90041446049287 7.555297889657794 235.98556966996094 H 0.0 **** 0.06
9309 H 117.92233798684668 8.767768678935425 236.84701372086178 H 0.0 **** 0.06
9310 H 118.5373409180524 9.117640402073476 235.2136484753715 H 0.0 **** 0.06
9311 C 203.50160367983005 0.25730499590486033 187.84486759021723 C 0.0 **** -0.24
9312 H 203.539518089755 -0.8266894308993358 187.74209045789127 H 0.0 **** 0.06
9313 H 204.46599007139355 0.621626763654973 188.20158333841445 H 0.0 **** 0.06
9314 H 202.72375308434448 0.5282486294936177 188.5585450836304 H 0.0 **** 0.06
9315 H 203.27933995749567 0.7059050252430836 186.87680126114861 H 0.0 **** 0.06
9316 C 163.43328674137751 36.37978318302439 245.26580940065085 C 0.0 **** -0.24
9317 H 164.5228117315502 36.40816641144836 245.27810803464865 H 0.0 **** 0.06
9318 H 163.0439504784891 37.08545746322888 246.00047848625863 H 0.0 **** 0.06
9319 H 163.09383044394087 35.37288249384763 245.5121262887781 H 0.0 **** 0.06
9320 H 163.07439956377263 36.65223225699516 244.27372469827014 H 0.0 **** 0.06
9321 C 116.99121204641321 206.48862864762168 229.84521617645578 C 0.0 **** -0.24
9322 H 116.95364196320944 207.55874981776867 229.64536442236664 H 0.0 **** 0.06
9323 H 117.33251497600253 205.96488805239892 228.95235019141688 H 0.0 **** 0.06
9324 H 115.99702717913343 206.13387539799027 230.1169000925073 H 0.0 **** 0.06
9325 H 117.6824659824295 206.29688454134447 230.66566407797075 H 0.0 **** 0.06
9326 C 18.48307671055042 65.81119992494078 20.189144233755613 C 0.0 **** -0.24
9327 H 17.878363050586586 64.97057530333072 20.529830609918378 H 0.0 **** 0.06
9328 H 17.965232599036256 66.32593184877553 19.379135528404532 H 0.0 **** 0.06
9329 H 19.444812070397205 65.44467434170846 19.829928886720552 H 0.0 **** 0.06
9330 H 18.643945023744294 66.5024432191071 21.01577997736797 H 0.0 **** 0.06
9331 C 156.14390529482847 88.87476139125388 34.38548361013868 C 0.0 **** -0.24
9332 H 156.67728241698583 89.41062255920085 35.16995490527307 H 0.0 **** 0.06
9333 H 155.90147477141676 89.56457110788102 33.57592411037254 H 0.0 **** 0.06
9334 H 155.22480506774411 88.45406539537296 34.79232044763198 H 0.0 **** 0.06
9335 H 156.7731043732804 88.07172233071938 34.001695445213386 H 0.0 **** 0.06
9336 C 160.28581756372765 31.511453592389046 36.37423809799938 C 0.0 **** -0.24
9337 H 161.30882558666408 31.885467887340013 36.37714413482 H 0.0 **** 0.06
9338 H 159.8157111588334 31.73298046662653 37.3324355631555 H 0.0 **** 0.06
9339 H 160.29273224195637 30.433721605600013 36.21303476224624 H 0.0 **** 0.06
9340 H 159.7238982169293 31.994856848757607 35.574665390379835 H 0.0 **** 0.06
9341 C 138.3468643513967 112.89815708129512 146.9687714430652 C 0.0 **** -0.24
9342 H 137.43354270779267 112.84386779392 147.561147857845 H 0.0 **** 0.06
9343 H 139.2126810761126 112.84068679770053 147.62931981077486 H 0.0 **** 0.06
9344 H 138.3693576610155 113.84187968797974 146.4223482762525 H 0.0 **** 0.06
9345 H 138.3723628747727 112.06915256750199 146.26216907854877 H 0.0 **** 0.06
9346 C 246.27752946320578 122.65714124487346 136.09163685020388 C 0.0 **** -0.24
9347 H 246.37404638805015 121.95405654947953 135.26401255846685 H 0.0 **** 0.06
9348 H 245.4526446215151 123.34170705592797 135.89062383901134 H 0.0 **** 0.06
9349 H 247.2023792868584 123.22229728879338 136.19722092704896 H 0.0 **** 0.06
9350 H 246.07846511825184 122.10873829600268 137.0126374833618 H 0.0 **** 0.06
9351 C 191.19843379332593 195.56809989434555 187.1057342277507 C 0.0 **** -0.24
9352 H 192.21149972220093 195.32512782460708 186.78408446031574 H 0.0 **** 0.06
9353 H 190.568421611745 194.68186057994228 187.02172166743844 H 0.0 **** 0.06
9354 H 190.79728570243782 196.36054482933093 186.47355718967333 H 0.0 **** 0.06
9355 H 191.21723736034386 195.90447079875975 188.14241576545004 H 0.0 **** 0.06
9356 C 191.42016310058773 38.621354176242335 73.313652318869 C 0.0 **** -0.24
9357 H 190.7481529980431 38.485719552201516 72.46593642017547 H 0.0 **** 0.06
9358 H 191.29034922910847 39.624701155263566 73.72278407661682 H 0.0 **** 0.06
9359 H 192.45096353144936 38.493168419311786 72.98484167013191 H 0.0 **** 0.06
9360 H 191.18877249647812 37.88309676994356 74.08229656158673 H 0.0 **** 0.06
9361 C 41.919412354142736 229.76873153759402 118.83553613911337 C 0.0 **** -0.24
9362 H 41.211925407704854 229.7079854371438 119.6624337747574 H 0.0 **** 0.06
9363 H 41.85902488261743 228.85840546517164 118.23877792367739 H 0.0 **** 0.06
9364 H 42.930578042184806 229.87919679830122 119.22949421262501 H 0.0 **** 0.06
9365 H 41.67669721537956 230.6291034175263 118.21222148783889 H 0.0 **** 0.06
9366 C 18.083288565138318 48.33306743913326 28.578880995867536 C 0.0 **** -0.24
9367 H 18.415115420626734 47.450488270081365 28.03294555313721 H 0.0 **** 0.06
9368 H 18.91204969037254 48.73106443533166 29.165926969005483 H 0.0 **** 0.06
9369 H 17.26386638602031 48.060974703843925 29.244879054393095 H 0.0 **** 0.06
9370 H 17.741800043886116 49.09064653441973 27.87281082742379 H 0.0 **** 0.06
9371 C 47.779357293500055 185.18638509864593 52.2971760777524 C 0.0 **** -0.24
9372 H 46.724388753950365 184.92284959204846 52.36969491772042 H 0.0 **** 0.06
9373 H 47.89018813115851 186.26814273137728 52.37625530813855 H 0.0 **** 0.06
9374 H 48.17228708024007 184.84998281309436 51.33707750668569 H 0.0 **** 0.06
9375 H 48.330098245041796 184.70425961480126 53.104846797215885 H 0.0 **** 0.06
9376 C 212.71134528654514 119.43345088664074 77.30112760365515 C 0.0 **** -0.24
9377 H 213.22256247717064 120.39509471061308 77.34479347090976 H 0.0 **** 0.06
9378 H 213.44180149768104 118.64152487184498 77.13523462299645 H 0.0 **** 0.06
9379 H 211.9917535012887 119.4416117883336 76.4836231004688 H 0.0 **** 0.06
9380 H 212.19110923430551 119.25625235240969 78.24192284657602 H 0.0 **** 0.06
9381 C 60.67563827877626 44.139284330383376 50.147792989688625 C 0.0 **** -0.24
9382 H 60.971429247320174 43.674413557587826 49.20725514482831 H 0.0 **** 0.06
9383 H 60.868026213559716 45.21144678748101 50.099625317709766 H 0.0 **** 0.06
9384 H 61.24953741256516 43.70293285123164 50.96517646013031 H 0.0 **** 0.06
9385 H 59.61294078651625 43.96891515068438 50.31857632002345 H 0.0 **** 0.06
9386 C 242.4153006891225 183.70891203249676 178.31198144306484 C 0.0 **** -0.24
9387 H 242.83280008880297 184.680330904482 178.5792476175481 H 0.0 **** 0.06
9388 H 241.33703497568516 183.80238648850013 178.1746673241231 H 0.0 **** 0.06
9389 H 242.6204305481328 182.99364151149354 179.10875204742783 H 0.0 **** 0.06
9390 H 242.87092064607282 183.36067145227963 177.3849601253978 H 0.0 **** 0.06
9391 C 205.38478067653557 216.89529516749695 106.95623106470745 C 0.0 **** -0.24
9392 H 205.9419477823275 215.96685017433666 107.08429076632305 H 0.0 **** 0.06
9393 H 204.86958148598887 216.8800544479482 105.9952887703804 H 0.0 **** 0.06
9394 H 206.0737119998946 217.73997465974278 106.98582438702542 H 0.0 **** 0.06
9395 H 204.65433308241745 216.9935182436286 107.75909288691491 H 0.0 **** 0.06
9396 C 184.54382507830428 177.5990391564659 228.62205821668948 C 0.0 **** -0.24
9397 H 183.67548313450078 178.16672479345866 228.95651427606956 H 0.0 **** 0.06
9398 H 184.36189320491178 176.53483745754477 228.77464954789602 H 0.0 **** 0.06
9399 H 185.41989251098005 177.90340996434506 229.19558140117033 H 0.0 **** 0.06
9400 H 184.71753248188668 177.79117906291614 227.56342439880268 H 0.0 **** 0.06
9401 C 27.945851605606464 211.0237426655698 225.8549446747366 C 0.0 **** -0.24
9402 H 28.94588225670593 210.7196877205736 226.16398650930182 H 0.0 **** 0.06
9403 H 27.2616965727226 210.18165559519332 225.9592846267111 H 0.0 **** 0.06
9404 H 27.970880443317284 211.34467784528775 224.81343675863255 H 0.0 **** 0.06
9405 H 27.60638152633554 211.84896695724262 226.4813554887074 H 0.0 **** 0.06
9406 C 232.2536470101674 195.27184060328244 245.100142582089 C 0.0 **** -0.24
9407 H 231.36522295179515 194.6569807562445 244.95964838226098 H 0.0 **** 0.06
9408 H 232.07961526934943 196.26331852734418 244.67961188357947 H 0.0 **** 0.06
9409 H 233.10067184331692 194.80676853436705 244.5951520097176 H 0.0 **** 0.06
9410 H 232.46952927831967 195.36084990315982 246.16493822538382 H 0.0 **** 0.06
9411 C 150.4541055576213 199.33113786602794 124.52131653889379 C 0.0 **** -0.24
9412 H 150.5264288711723 199.07046969387326 123.4662554059916 H 0.0 **** 0.06
9413 H 150.41034159208672 198.4198067922511 125.11824280297535 H 0.0 **** 0.06
9414 H 149.55110347128232 199.9185574537077 124.68920648670019 H 0.0 **** 0.06
9415 H 151.32738030168068 199.91470363095266 124.81282946963685 H 0.0 **** 0.06
9416 C 125.82510611591454 175.3318061233108 17.4925096826325 C 0.0 **** -0.24
9417 H 124.99233390096501 176.0053277260895 17.287006227627515 H 0.0 **** 0.06
9418 H 126.61307258210331 175.49534167882047 16.756590155708196 H 0.0 **** 0.06
9419 H 125.48033425081601 174.3003987703542 17.432170765689534 H 0.0 **** 0.06
9420 H 126.21305062476134 175.52839203026093 18.4917546995178 H 0.0 **** 0.06
9421 C 232.89452641549337 224.41362760811134 195.46233767158662 C 0.0 **** -0.24
9422 H 233.7517495183505 224.2952667728842 196.12487584459728 H 0.0 **** 0.06
9423 H 232.1613728777389 225.07103741433752 195.9319149562565 H 0.0 **** 0.06
9424 H 232.44258247316077 223.43992627904083 195.2752281941286 H 0.0 **** 0.06
9425 H 233.22236806834326 224.8502013850343 194.51847498808843 H 0.0 **** 0.06
9426 C 136.09076691587853 169.6141016969799 65.61485673438537 C 0.0 **** -0.24
9427 H 135.04648200776217 169.3651849437491 65.80517240797957 H 0.0 **** 0.06
9428 H 136.31960956595873 169.43708288230027 64.56398759452716 H 0.0 **** 0.06
9429 H 136.73115123769577 168.98832035842514 66.23670977859615 H 0.0 **** 0.06
9430 H 136.26323519173704 170.6626110157368 65.85348500486495 H 0.0 **** 0.06
9431 C 25.77701027392156 242.8417172077093 112.88420142138295 C 0.0 **** -0.24
9432 H 26.24374377071969 243.61493846076482 112.27486957823513 H 0.0 **** 0.06
9433 H 26.545351657003224 242.29643686568716 113.43251377659081 H 0.0 **** 0.06
9434 H 25.231057276338177 242.15156664417864 112.24010119300706 H 0.0 **** 0.06
9435 H 25.08555209262758 243.30329922621956 113.58970563867152 H 0.0 **** 0.06
9436 C 29.8188392627288 42.89457543866655 158.71426094122762 C 0.0 **** -0.24
9437 H 30.853741298324536 42.560371663829926 158.63313021779246 H 0.0 **** 0.06
9438 H 29.63738015470446 43.27143206891816 159.72128440201536 H 0.0 **** 0.06
9439 H 29.15121752855029 42.056512871983216 158.5140337603163 H 0.0 **** 0.06
9440 H 29.63575700332146 43.68771318262526 157.98975147366338 H 0.0 **** 0.06
9441 C 142.46493724548282 47.77230104765424 97.58159482987733 C 0.0 **** -0.24
9442 H 142.70592094471527 46.89983025997175 96.97357660745917 H 0.0 **** 0.06
9443 H 141.86423599628102 48.46823585871937 96.99458091771189 H 0.0 **** 0.06
9444 H 143.385776440296 48.26161666412138 97.89529843403156 H 0.0 **** 0.06
9445 H 141.90226966602114 47.458568327416856 98.46033457269323 H 0.0 **** 0.06
9446 C 39.617664658988815 22.3497207062953 164.44143379795025 C 0.0 **** -0.24
9447 H 40.356826211200115 21.666834539731468 164.85967923740867 H 0.0 **** 0.06
9448 H 38.77280262370937 21.776891389780957 164.05651263214222 H 0.0 **** 0.06
9449 H 40.069344508003866 22.92125226906117 163.63091633920493 H 0.0 **** 0.06
9450 H 39.27073744083313 23.030426989452593 165.21871497507553 H 0.0 **** 0.06
9451 C 216.4976814387924 91.77895206793713 55.14348530675281 C 0.0 **** -0.24
9452 H 216.35429476764637 91.22402748025951 56.070031324355085 H 0.0 **** 0.06
9453 H 216.50736120370348 91.08484432144036 54.30322445103204 H 0.0 **** 0.06
9454 H 217.4460580203939 92.31534779471744 55.18440058176063 H 0.0 **** 0.06
9455 H 215.68210569206406 92.49146960036126 55.01736416375965 H 0.0 **** 0.06
9456 C 182.90096795005928 178.7357088283818 218.92853160433333 C 0.0 **** -0.24
9457 H 182.9759860089543 177.6506322850894 218.99993017032668 H 0.0 **** 0.06
9458 H 182.46738004711335 179.13102171791525 219.84780513861884 H 0.0 **** 0.06
9459 H 182.26633810265338 179.00091297578624 218.0831735249994 H 0.0 **** 0.06
9460 H 183.8951383579899 179.15936405701922 218.7837074923729 H 0.0 **** 0.06
9461 C 80.07511012218686 198.3144878260016 101.53522004499396 C 0.0 **** -0.24
9462 H 80.00656816117038 199.31283829563694 101.96776936274642 H 0.0 **** 0.06
9463 H 81.1176950287518 197.99674417425786 101.51968768388568 H 0.0 **** 0.06
9464 H 79.68478428012841 198.3331712913482 100.51718308891859 H 0.0 **** 0.06
9465 H 79.49044533082505 197.61743921550487 102.1359628271056 H 0.0 **** 0.06
9466 C 155.99865727627943 156.27500074391284 190.6046460860009 C 0.0 **** -0.24
9467 H 155.71557345417168 156.0754850314399 191.63802626600045 H 0.0 **** 0.06
9468 H 155.9050506037565 155.36029769687937 190.0199609674532 H 0.0 **** 0.06
9469 H 157.03081533171766 156.623479950453 190.5721106013126 H 0.0 **** 0.06
9470 H 155.34301194831662 157.04154968707206 190.19056336624786 H 0.0 **** 0.06
9471 C 186.94319464183783 247.05341630690737 47.7847445557923 C 0.0 **** -0.24
9472 H 186.21590670114162 247.84845603300775 47.61535839898748 H 0.0 **** 0.06
9473 H 187.4668187028806 247.2338745183136 48.723297293293555 H 0.0 **** 0.06
9474 H 187.66151244634565 247.03923333172241 46.96475983129048 H 0.0 **** 0.06
9475 H 186.42755337475546 246.0947482207228 47.833109265603255 H 0.0 **** 0.06
9476 C 44.02771901098822 158.70758615800509 143.94922518499808 C 0.0 **** -0.24
9477 H 43.59615052354721 158.793503104876 144.9458712990165 H 0.0 **** 0.06
9478 H 43.60921970408211 159.48052012058494 143.30511884111783 H 0.0 **** 0.06
9479 H 43.79688327772655 157.72601000507586 143.53663013088308 H 0.0 **** 0.06
9480 H 45.10980950077425 158.8309940223339 144.00963426134288 H 0.0 **** 0.06
9481 C 207.1893865343659 122.12301396245903 151.88756411358898 C 0.0 **** -0.24
9482 H 207.2546337859932 122.10908904895618 150.79961675191277 H 0.0 **** 0.06
9483 H 207.6253692903451 121.20688951505846 152.28849755194213 H 0.0 **** 0.06
9484 H 206.1440654105467 122.1902395404812 152.18763415638256 H 0.0 **** 0.06
9485 H 207.73532259870206 122.98394319694219 152.27309132886967 H 0.0 **** 0.06
9486 C 228.79454178829866 31.156133325600734 57.33839034241015 C 0.0 **** -0.24
9487 H 229.4962949761709 30.899260982181517 56.543730887490824 H 0.0 **** 0.06
9488 H 228.83257713719888 30.392373705290908 58.11626317314793 H 0.0 **** 0.06
9489 H 227.78618709432902 31.20690277919934 56.92797611287543 H 0.0 **** 0.06
9490 H 229.06389678589372 32.12235432668896 57.762742098559556 H 0.0 **** 0.06
9491 C 195.1682937232717 144.18332853986885 17.626878815662565 C 0.0 **** -0.24
9492 H 195.2064169231461 143.11249797348628 17.424903330021777 H 0.0 **** 0.06
9493 H 195.2772034251753 144.35328288665767 18.698481715713058 H 0.0 **** 0.06
9494 H 194.21222812108095 144.58271375797716 17.28994028843266 H 0.0 **** 0.06
9495 H 195.9789717271356 144.68170997603406 17.094979679494315 H 0.0 **** 0.06
9496 C 241.2495259842786 135.08787258155283 85.81463368492996 C 0.0 **** -0.24
9497 H 241.80218908002627 134.45998031027312 85.11670936634272 H 0.0 **** 0.06
9498 H 241.49026115807982 136.1348024346551 85.63041906457786 H 0.0 **** 0.06
9499 H 241.52526774025463 134.8255720046247 86.83616658354808 H 0.0 **** 0.06
9500 H 240.18021592189191 134.9303298248304 85.6758070533705 H 0.0 **** 0.06
9501 C 227.58018359239202 152.93187692323872 18.392832978695452 C 0.0 **** -0.24
9502 H 228.3690127712194 152.55954525554245 17.73872119072186 H 0.0 **** 0.06
9503 H 226.61631314513912 152.8307244568879 17.893193592284234 H 0.0 **** 0.06
9504 H 227.76272119924693 153.98154260706178 18.621690002645977 H 0.0 **** 0.06
9505 H 227.57237468221598 152.35374839780852 19.31667278886576 H 0.0 **** 0.06
9506 C 234.45697046026694 209.97209735220048 248.1912313522824 C 0.0 **** -0.24
9507 H 234.5740307858659 208.8978602340871 248.04649342186622 H 0.0 **** 0.06
9508 H 234.69811624262786 210.49168539952632 247.26322782127 H 0.0 **** 0.06
9509 H 235.12804045235072 210.30760467960678 248.98115632096312 H 0.0 **** 0.06
9510 H 233.42647910883483 210.19002879490776 248.47229901834726 H 0.0 **** 0.06
9511 C 13.838849740978816 42.210221440367974 67.71419349100589 C 0.0 **** -0.24
9512 H 14.051689691716632 43.25955590962377 67.91806328948161 H 0.0 **** 0.06
9513 H 13.691442937023538 41.68015841251868 68.65531675216135 H 0.0 **** 0.06
9514 H 14.67564322992152 41.7681088792819 67.17455500321708 H 0.0 **** 0.06
9515 H 12.935234055140171 42.1344384380082 67.10926027242289 H 0.0 **** 0.06
9516 C 179.2265823772113 200.5327351919946 157.03234942557432 C 0.0 **** -0.24
9517 H 179.71246852768695 200.02550030215792 156.19770758452282 H 0.0 **** 0.06
9518 H 178.542632814914 199.84247813200795 157.52709659870973 H 0.0 **** 0.06
9519 H 178.670883587339 201.3930718277036 156.66113481867987 H 0.0 **** 0.06
9520 H 179.98306881451268 200.8673294668556 157.74331814924162 H 0.0 **** 0.06
9521 C 108.2336702630484 145.79156242324518 7.293294827556224 C 0.0 **** -0.24
9522 H 107.44427284172642 145.24750923573666 6.77387359427253 H 0.0 **** 0.06
9523 H 109.11534135812596 145.15606081764938 7.3787603903084715 H 0.0 **** 0.06
9524 H 107.88733885850573 146.069708779348 8.287987603467386 H 0.0 **** 0.06
9525 H 108.48592266265396 146.6897952097658 6.730645605839371 H 0.0 **** 0.06
9526 C 57.659412293076144 154.85348405084164 145.27641845050834 C 0.0 **** -0.24
9527 H 56.8136105775333 154.79215895446455 144.59064788213533 H 0.0 **** 0.06
9528 H 58.241930210749246 155.74797038504738 145.0541221396369 H 0.0 **** 0.06
9529 H 58.287402391311616 153.97039100354436 145.15770165519044 H 0.0 **** 0.06
9530 H 57.29146290387317 154.90414010431678 146.3014822466627 H 0.0 **** 0.06
9531 C 88.06611159595974 157.36085384543276 68.59135318152514 C 0.0 **** -0.24
9532 H 86.99493848577191 157.1591973921468 68.60474771069923 H 0.0 **** 0.06
9533 H 88.46824742240062 157.2527402862592 69.59873732159141 H 0.0 **** 0.06
9534 H 88.24005745382883 158.37668897781037 68.23575875453886 H 0.0 **** 0.06
9535 H 88.56018164998628 156.65331446512477 67.92450058251401 H 0.0 **** 0.06
9536 C 239.53177999735345 210.7354762443963 28.676519522822986 C 0.0 **** -0.24
9537 H 239.12020704663183 209.7400652376832 28.838979329079734 H 0.0 **** 0.06
9538 H 240.61566855860076 210.6684363969417 28.574378293813453 H 0.0 **** 0.06
9539 H 239.28530438250294 211.37436114295457 29.524541589971818 H 0.0 **** 0.06
9540 H 239.10745829366425 211.15932989579846 27.765607476433246 H 0.0 **** 0.06
9541 C 196.62418778668382 231.83979176399987 47.480144831317745 C 0.0 **** -0.24
9542 H 195.83555363769213 232.5423858244638 47.2073988826632 H 0.0 **** 0.06
9543 H 196.49558273194498 230.91411551520054 46.92021556792476 H 0.0 **** 0.06
9544 H 196.5687360435644 231.6295819840658 48.5481197931212 H 0.0 **** 0.06
9545 H 197.59570261684567 232.27582870021604 47.24513141728367 H 0.0 **** 0.06
9546 C 186.76260937822315 169.84937959530592 172.29349887243734 C 0.0 **** -0.24
9547 H 186.9592303266298 170.29452873370929 171.31845220138015 H 0.0 **** 0.06
9548 H 186.11034398894253 168.9848384582956 172.17303291660934 H 0.0 **** 0.06
9549 H 186.27906435225617 170.5838942266512 172.9374437708449 H 0.0 **** 0.06
9550 H 187.70403308976879 169.53521339860296 172.74537227907138 H 0.0 **** 0.06
9551 C 85.41256500668385 163.95011022184474 87.17673610180461 C 0.0 **** -0.24
9552 H 86.30335574945963 163.74973873220642 87.77286418935518 H 0.0 **** 0.06
9553 H 84.80876866057358 164.7113859710895 87.67084517536011 H 0.0 **** 0.06
9554 H 84.83047478297763 163.0350959335519 87.0731726907459 H 0.0 **** 0.06
9555 H 85.7091945760321 164.30584109286434 86.18991898735365 H 0.0 **** 0.06
9556 C 192.4788925256753 26.581891260234556 108.19788874239197 C 0.0 **** -0.24
9557 H 191.96906552442135 27.006760132304052 109.06234489262903 H 0.0 **** 0.06
9558 H 191.7552202042614 26.06014080804077 107.56987884795052 H 0.0 **** 0.06
9559 H 193.2407280509197 25.87960467298045 108.53557757301212 H 0.0 **** 0.06
9560 H 192.94820323171882 27.380460806370323 107.62407718648575 H 0.0 **** 0.06
9561 C 151.6000226297456 149.72950289543564 30.886937877812173 C 0.0 **** -0.24
9562 H 152.50545618752562 149.5548681708126 30.30470908593408 H 0.0 **** 0.06
9563 H 150.94849172843251 150.41749258673178 30.347809653686696 H 0.0 **** 0.06
9564 H 151.86706574628465 150.16137205133452 31.852139715846917 H 0.0 **** 0.06
9565 H 151.08126204723447 148.7831763212435 31.043191042268262 H 0.0 **** 0.06
9566 C 213.0736603249362 209.7248025118491 33.484180221471675 C 0.0 **** -0.24
9567 H 213.35744177709444 208.89989066486908 34.1387290082356 H 0.0 **** 0.06
9568 H 212.09529439174375 209.52123517063905 33.04800821980338 H 0.0 **** 0.06
9569 H 213.81175978334986 209.82738730122918 32.688917298802934 H 0.0 **** 0.06
9570 H 213.0299506238851 210.64798545682618 34.06233529105289 H 0.0 **** 0.06
9571 C 130.95782232219545 53.85339980859135 243.4450735040944 C 0.0 **** -0.24
9572 H 130.00738350775856 54.11254735228175 243.91071196035938 H 0.0 **** 0.06
9573 H 131.73097032408037 53.7855428384091 244.21047416308755 H 0.0 **** 0.06
9574 H 131.22877901139879 54.621769904472984 242.72154366391928 H 0.0 **** 0.06
9575 H 130.8636555738113 52.8931245478057 242.93695479102354 H 0.0 **** 0.06
9576 C 75.44324827534132 169.2836431886292 166.27744899636554 C 0.0 **** -0.24
9577 H 74.68149777803998 169.67158634502437 165.60016628605126 H 0.0 **** 0.06
9578 H 75.65360989340269 170.02444140437623 167.0486341614953 H 0.0 **** 0.06
9579 H 76.35382521969382 169.07220018608834 165.71765256403273 H 0.0 **** 0.06
9580 H 75.0812972648526 168.3668082590456 166.74295382853828 H 0.0 **** 0.06
9581 C 199.11774303059622 188.3747292527155 126.59496992434114 C 0.0 **** -0.24
9582 H 199.4463801976725 187.3445000842267 126.45794787384474 H 0.0 **** 0.06
9583 H 198.25184423163464 188.393793774478 127.2576405774202 H 0.0 **** 0.06
9584 H 198.84628201034195 188.8003389347201 125.62924331919459 H 0.0 **** 0.06
9585 H 199.92530809402692 188.9581472645432 127.0347421833263 H 0.0 **** 0.06
9586 C 198.6636605307282 229.29711316340894 143.78354374266374 C 0.0 **** -0.24
9587 H 198.57054788279126 230.3788783714602 143.88403576765288 H 0.0 **** 0.06
9588 H 197.69055584116597 228.83299804609106 143.94754069710717 H 0.0 **** 0.06
9589 H 199.37365974060606 228.92352650202935 144.52046889764733 H 0.0 **** 0.06
9590 H 199.01785032646666 229.05509568564844 142.78129292462216 H 0.0 **** 0.06
9591 C 127.9245747975558 34.14350814425751 87.07353880363215 C 0.0 **** -0.24
9592 H 127.93505669261785 34.647552357217904 86.10745955002821 H 0.0 **** 0.06
9593 H 128.87836961719972 33.638111627606634 87.22826236887639 H 0.0 **** 0.06
9594 H 127.11786892854752 33.411776758137904 87.09309318360803 H 0.0 **** 0.06
9595 H 127.76996582104346 34.877322129564135 87.8645069873007 H 0.0 **** 0.06
9596 C 147.9902526196626 139.31946767604003 145.38344836675913 C 0.0 **** -0.24
9597 H 147.78723356720513 138.24950966526006 145.42770542745322 H 0.0 **** 0.06
9598 H 147.0499150725556 139.86967640354848 145.4101545194077 H 0.0 **** 0.06
9599 H 148.52132372247988 139.54945414902122 144.4587050000284 H 0.0 **** 0.06
9600 H 148.6050248219312 139.6080360215915 146.2360496913744 H 0.0 **** 0.06
9601 C 117.1863216483631 67.88704842742396 133.66309772229098 C 0.0 **** -0.24
9602 H 117.69094530911718 66.9722601297502 133.35108665258704 H 0.0 **** 0.06
9603 H 117.52017433093809 68.16270390448082 134.6632847101009 H 0.0 **** 0.06
9604 H 116.10873200070196 67.72271572108363 133.6711527555024 H 0.0 **** 0.06
9605 H 117.425681476184 68.68951860350103 132.96464223479288 H 0.0 **** 0.06
9606 C 67.52325700954836 163.73823256743987 104.98135748897587 C 0.0 **** -0.24
9607 H 68.58774225481932 163.94275221201448 104.86606894635892 H 0.0 **** 0.06
9608 H 66.9641862847032 164.27972145530242 104.21810243318089 H 0.0 **** 0.06
9609 H 67.19584705092691 164.06088428963486 105.97010627518375 H 0.0 **** 0.06
9610 H 67.34561336250485 162.66845982211254 104.87194736373311 H 0.0 **** 0.06
9611 C 58.1412850205181 113.75426829238603 152.81145377131034 C 0.0 **** -0.24
9612 H 59.20368620187284 113.51984162610742 152.8718725536303 H 0.0 **** 0.06
9613 H 58.009819500295436 114.73321393876842 152.35032601355255 H 0.0 **** 0.06
9614 H 57.71332228773596 113.76423777616128 153.81422746694258 H 0.0 **** 0.06
9615 H 57.636677693145 112.99797064757664 152.2096249803868 H 0.0 **** 0.06
9616 C 179.47755537962732 100.34181730266349 13.725694781466473 C 0.0 **** -0.24
9617 H 180.30569636019004 99.8802143186335 14.262322919422033 H 0.0 **** 0.06
9618 H 179.1547032311217 99.68301535274946 12.919809525258898 H 0.0 **** 0.06
9619 H 179.80098686641185 101.29469114224122 13.308574806768988 H 0.0 **** 0.06
9620 H 178.64829335050194 100.50894971629549 14.413315909429883 H 0.0 **** 0.06
9621 C 0.007985572327783075 124.24463774494828 113.96822717828289 C 0.0 **** -0.24
9622 H -0.07047854788132213 123.85941827145297 112.95153503745834 H 0.0 **** 0.06
9623 H 0.8879309060473588 123.81830795119856 114.45093795618837 H 0.0 **** 0.06
9624 H -0.8839229712420149 123.96876204866061 114.53152490333264 H 0.0 **** 0.06
9625 H 0.09924777617348468 125.33011440081538 113.93962294794386 H 0.0 **** 0.06
9626 C 167.69532078865515 154.2590719585795 245.60523323833297 C 0.0 **** -0.24
9627 H 168.35166442667972 154.91291621570772 246.18000301026166 H 0.0 **** 0.06
9628 H 168.10830197252398 153.25000318289034 245.59394942142467 H 0.0 **** 0.06
9629 H 167.61660968773614 154.6312281405812 244.58336929649715 H 0.0 **** 0.06
9630 H 166.70683290752808 154.24335156570402 246.06349423375144 H 0.0 **** 0.06
9631 C 56.12257452826958 30.910122617441658 103.35685854234984 C 0.0 **** -0.24
9632 H 55.21138733632941 31.504354668315017 103.29656153272518 H 0.0 **** 0.06
9633 H 56.10742904675067 30.141207679570158 102.58398985465962 H 0.0 **** 0.06
9634 H 56.18375454259055 30.43681079325424 104.33779203165389 H 0.0 **** 0.06
9635 H 56.98876258943574 31.55593982427817 103.2108758288148 H 0.0 **** 0.06
9636 C 51.777569929791795 111.44208490926604 65.56463041244098 C 0.0 **** -0.24
9637 H 51.43400963362423 111.73148126920901 66.55810947384276 H 0.0 **** 0.06
9638 H 52.24388355355178 112.29854205580861 65.07827835510759 H 0.0 **** 0.06
9639 H 50.92897882164351 111.10348879589094 64.97088605306828 H 0.0 **** 0.06
9640 H 52.50387918311438 110.63353627932537 65.65426613286422 H 0.0 **** 0.06
9641 C 64.51762618918636 82.84081165233678 173.26044298872824 C 0.0 **** -0.24
9642 H 65.15905586622551 82.56576797132689 172.42314882752012 H 0.0 **** 0.06
9643 H 63.61017414019665 82.23782603161473 173.23505233740443 H 0.0 **** 0.06
9644 H 64.25582555820085 83.89679301338174 173.18611685538923 H 0.0 **** 0.06
9645 H 65.04698193856663 82.66360536160332 174.19640772404955 H 0.0 **** 0.06
9646 C 144.88546223210565 136.16493007509916 191.2363956905791 C 0.0 **** -0.24
9647 H 144.1390009609477 136.85940164218312 190.85161864236505 H 0.0 **** 0.06
9648 H 144.4102525942644 135.21259232356795 191.46900300825547 H 0.0 **** 0.06
9649 H 145.33479809851173 136.57793615243278 192.13982019415198 H 0.0 **** 0.06
9650 H 145.65931881240635 136.01036643325799 190.4845468746584 H 0.0 **** 0.06
9651 C 195.6701410266561 241.25198674273966 54.90314751131572 C 0.0 **** -0.24
9652 H 196.69708351116532 241.3647326658018 55.249590943964876 H 0.0 **** 0.06
9653 H 195.0982055691547 240.6875345415324 55.64000850206449 H 0.0 **** 0.06
9654 H 195.66465027404266 240.7194685696076 53.95189579925244 H 0.0 **** 0.06
9655 H 195.22120203259652 242.2368817418223 54.770628835611944 H 0.0 **** 0.06
9656 C 198.49134627126423 228.41242417151372 79.9970008440207 C 0.0 **** -0.24
9657 H 198.72476761355284 229.06787721830548 80.83635854760223 H 0.0 **** 0.06
9658 H 199.22922982930564 227.6119573838273 79.94501677074663 H 0.0 **** 0.06
9659 H 198.5129612106487 228.98811967967941 79.0715258048167 H 0.0 **** 0.06
9660 H 197.49854485520765 227.98489243401838 80.13485048789948 H 0.0 **** 0.06
9661 C 49.54119336301058 0.9803135393247544 177.58205624496856 C 0.0 **** -0.24
9662 H 49.08139755963957 0.023063020293093928 177.83066808328311 H 0.0 **** 0.06
9663 H 50.51953277079011 1.046889763525087 178.0594294657119 H 0.0 **** 0.06
9664 H 48.90639210199616 1.7914376891250186 177.93886227446063 H 0.0 **** 0.06
9665 H 49.657290188147115 1.0573840873993134 176.50206263179786 H 0.0 **** 0.06
9666 C 2.4026856592194576 168.17487964893368 63.19260510583018 C 0.0 **** -0.24
9667 H 3.4322828793467153 168.0477769138916 62.85746777220521 H 0.0 **** 0.06
9668 H 2.395007872395581 168.69661206641032 64.14968499109807 H 0.0 **** 0.06
9669 H 1.9340235744078313 167.1976098407526 63.30637740857375 H 0.0 **** 0.06
9670 H 1.8511634554318164 168.7587869333955 62.45627087245319 H 0.0 **** 0.06
9671 C 3.677340872623077 40.69608356519835 74.62510438986845 C 0.0 **** -0.24
9672 H 3.938778907492704 39.70110066576112 74.26708799728189 H 0.0 **** 0.06
9673 H 3.5031206193676496 41.3541133148003 73.7732906019856 H 0.0 **** 0.06
9674 H 4.4930641496227395 41.09043873073581 75.2305439836698 H 0.0 **** 0.06
9675 H 2.7709237286806285 40.637368233532825 75.22993334657846 H 0.0 **** 0.06
9676 C 229.79201569787494 184.1604471159485 55.43391218675643 C 0.0 **** -0.24
9677 H 230.07082986290322 184.54560241808323 56.41437106740901 H 0.0 **** 0.06
9678 H 228.8232805249128 183.66491585456066 55.49984021625451 H 0.0 **** 0.06
9679 H 230.54399003715707 183.44623640770507 55.09743004314828 H 0.0 **** 0.06
9680 H 229.73149721220847 184.98516485184575 54.723215524374524 H 0.0 **** 0.06
9681 C 153.2389203120662 149.71186539635104 173.72809504095335 C 0.0 **** -0.24
9682 H 152.714286687734 149.41077126396368 174.63537198981558 H 0.0 **** 0.06
9683 H 153.0796024237378 148.96290339033087 172.95175278259313 H 0.0 **** 0.06
9684 H 154.30528519710063 149.79746679772765 173.93638545986036 H 0.0 **** 0.06
9685 H 152.85593589392656 150.6742465777147 173.38948175040306 H 0.0 **** 0.06
9686 C 224.22939979572192 53.08612729679422 76.75483861249324 C 0.0 **** -0.24
9687 H 223.7214053788286 53.719804156196005 76.02822394558478 H 0.0 **** 0.06
9688 H 225.30752684685473 53.16037879601876 76.60936918413054 H 0.0 **** 0.06
9689 H 223.91361373772855 52.05196390705251 76.61828893072027 H 0.0 **** 0.06
9690 H 223.97562158707848 53.41364160808823 77.76327134236021 H 0.0 **** 0.06
9691 C 247.0260099352284 49.84643241694036 50.47597903858744 C 0.0 **** -0.24
9692 H 247.90514398585177 49.96034377501812 51.11112949630801 H 0.0 **** 0.06
9693 H 246.96942748997932 48.819576044474644 50.11398181226045 H 0.0 **** 0.06
9694 H 247.10114817686807 50.52730843378541 49.62747937802975 H 0.0 **** 0.06
9695 H 246.12993662487094 50.07961869107558 51.0509532565151 H 0.0 **** 0.06
9696 C 229.6788803950983 245.01048307344723 79.94644917478388 C 0.0 **** -0.24
9697 H 228.76463579638113 245.51980042028288 79.64259194208978 H 0.0 **** 0.06
9698 H 229.80337971153375 244.10356647696992 79.35442993521929 H 0.0 **** 0.06
9699 H 229.6140596654202 244.74934349534632 81.00328737171475 H 0.0 **** 0.06
9700 H 230.53141352812452 245.6698430042988 79.78670469807088 H 0.0 **** 0.06
9701 C 94.6068109658325 12.899193366102708 215.57359134360357 C 0.0 **** -0.24
9702 H 95.4990392895688 12.422132077871396 215.16934920750427 H 0.0 **** 0.06
9703 H 94.7943322935771 13.963835949652918 215.7109939789204 H 0.0 **** 0.06
9704 H 94.35593896940452 12.446726959569986 216.53344912997522 H 0.0 **** 0.06
9705 H 93.7766684853996 12.762545755318598 214.88034718418783 H 0.0 **** 0.06
9706 C 64.73572150087074 88.98834647372371 8.235621356133393 C 0.0 **** -0.24
9707 H 64.62680400761397 88.03481070645296 7.717484208807107 H 0.0 **** 0.06
9708 H 63.8795655982407 89.62385335158669 8.007372246437981 H 0.0 **** 0.06
9709 H 65.65151467896104 89.47844847703232 7.904524007510702 H 0.0 **** 0.06
9710 H 64.78429594140664 88.81487921798345 9.310179495301668 H 0.0 **** 0.06
9711 C 25.522969853617354 223.31250481374326 118.58856497983777 C 0.0 **** -0.24
9712 H 25.59287365439704 224.30134197636326 119.04300981065077 H 0.0 **** 0.06
9713 H 25.723740438384453 222.55060169473265 119.34215398215991 H 0.0 **** 0.06
9714 H 26.255162213446283 223.23032390992137 117.78536001515769 H 0.0 **** 0.06
9715 H 24.521877387087358 223.16907322282015 118.18268468301994 H 0.0 **** 0.06
9716 C 93.42411682015108 25.576777703016447 15.710351269532737 C 0.0 **** -0.24
9717 H 94.2646136599881 24.989300008010844 15.339272301570816 H 0.0 **** 0.06
9718 H 93.79247944438424 26.357935971636863 16.375210881692425 H 0.0 **** 0.06
9719 H 92.73970362691065 24.9271687339818 16.255268997249317 H 0.0 **** 0.06
9720 H 92.90083755751047 26.031527989555144 14.86845129209317 H 0.0 **** 0.06
9721 C 193.8052441013825 143.8521794261339 190.825911100194 C 0.0 **** -0.24
9722 H 194.437342952104 143.3254651338674 190.11090643774423 H 0.0 **** 0.06
9723 H 193.80042460363438 143.3121665262636 191.77307550822832 H 0.0 **** 0.06
9724 H 192.78862141862186 143.9129330308862 190.43652068349488 H 0.0 **** 0.06
9725 H 194.19533789522634 144.85781953483283 190.98257115286873 H 0.0 **** 0.06
9726 C 121.5717352944342 148.93688272639233 204.36629792771538 C 0.0 **** -0.24
9727 H 120.79350695699219 149.54353662105981 203.90103639293443 H 0.0 **** 0.06
9728 H 122.21331676698199 148.51449952435598 203.59299642567132 H 0.0 **** 0.06
9729 H 121.11103288033075 148.13138747920033 204.93700209669709 H 0.0 **** 0.06
9730 H 122.16738191854014 149.56080049684104 205.03246928819914 H 0.0 **** 0.06
9731 C 176.12753503622775 126.95083456562259 176.60120912349797 C 0.0 **** -0.24
9732 H 175.25671523259 127.53897367585301 176.31375510350796 H 0.0 **** 0.06
9733 H 176.4272579460358 126.3136369132726 175.76896943333583 H 0.0 **** 0.06
9734 H 175.87906931943735 126.33034099925044 177.46304501530986 H 0.0 **** 0.06
9735 H 176.94792413994932 127.62030939926566 176.86114323334908 H 0.0 **** 0.06
9736 C 58.2513025414587 42.65207298903816 93.8272304950593 C 0.0 **** -0.24
9737 H 57.774648096553534 43.62174871105967 93.96854608826064 H 0.0 **** 0.06
9738 H 58.93431842022201 42.45835914260506 94.65444499337525 H 0.0 **** 0.06
9739 H 58.807252991294206 42.6531581678057 92.8892456889404 H 0.0 **** 0.06
9740 H 57.48830255565585 41.87394880905974 93.79607995322286 H 0.0 **** 0.06
9741 C 94.66359894529464 212.010939047877 240.6506408409976 C 0.0 **** -0.24
9742 H 93.6351599800256 212.26429954938206 240.3932106164801 H 0.0 **** 0.06
9743 H 94.70522072622646 210.98365477825092 241.01324838358659 H 0.0 **** 0.06
9744 H 95.01994686299756 212.68595548542072 241.42810693655127 H 0.0 **** 0.06
9745 H 95.29355342072662 212.11056888975878 239.76689607052379 H 0.0 **** 0.06
9746 C 189.99369656345675 85.55587076019162 124.2503338022145 C 0.0 **** -0.24
9747 H 190.11562214580425 84.47618019964511 124.33981575446109 H 0.0 **** 0.06
9748 H 190.96709447027223 86.01817552601219 124.08526293497223 H 0.0 **** 0.06
9749 H 189.55646358768917 85.94851478183534 125.16847516845064 H 0.0 **** 0.06
9750 H 189.33724211710063 85.77859821934791 123.40958853702585 H 0.0 **** 0.06
9751 C 209.63438611168294 135.92457128072024 164.46736226194645 C 0.0 **** -0.24
9752 H 210.31701271335174 135.30603617075337 165.050561040377 H 0.0 **** 0.06
9753 H 210.05341775103977 136.92525441609658 164.35898180859823 H 0.0 **** 0.06
9754 H 208.67401947652797 135.9853356395225 164.9780883876891 H 0.0 **** 0.06
9755 H 209.49454825949158 135.48072069283324 163.48173779039865 H 0.0 **** 0.06
9756 C 51.943824578543015 54.64207004541805 18.807260347336864 C 0.0 **** -0.24
9757 H 52.650575837645505 53.81372778612305 18.859989195714277 H 0.0 **** 0.06
9758 H 51.33316626296343 54.542253859302434 17.910060973152298 H 0.0 **** 0.06
9759 H 52.49115053123671 55.58398132488665 18.772360333248287 H 0.0 **** 0.06
9760 H 51.301600449283725 54.62877766219836 19.688167297299145 H 0.0 **** 0.06
9761 C 197.666030488726 71.9878088434142 48.751432134213104 C 0.0 **** -0.24
9762 H 197.4891194224764 71.42020956510086 49.66419392587869 H 0.0 **** 0.06
9763 H 198.53134289045565 71.57820302057777 48.230412858752885 H 0.0 **** 0.06
9764 H 197.85320518944744 73.03162365143854 49.00320752174392 H 0.0 **** 0.06
9765 H 196.7884402578216 71.92093631457786 48.10654528827922 H 0.0 **** 0.06
9766 C 211.79118373817437 188.18711285063156 32.56136864847983 C 0.0 **** -0.24
9767 H 211.577889667869 189.2372236947495 32.362702044016174 H 0.0 **** 0.06
9768 H 211.15618576072126 187.56219786780724 31.93279374508313 H 0.0 **** 0.06
9769 H 211.59331389825064 187.9675415490378 33.61081590531123 H 0.0 **** 0.06
9770 H 212.838550216998 187.98077970448819 32.338946370275494 H 0.0 **** 0.06
9771 C 148.07994318434214 144.7679401321165 146.16004920448725 C 0.0 **** -0.24
9772 H 148.9127366111492 144.29095185329004 145.64291685881426 H 0.0 **** 0.06
9773 H 147.5342943365432 145.403474385087 145.4614247467649 H 0.0 **** 0.06
9774 H 148.46253970711336 145.37492851492567 146.98047627079515 H 0.0 **** 0.06
9775 H 147.41121575972164 144.00361389287903 146.55414892159422 H 0.0 **** 0.06
9776 C 14.74367150403637 148.26682573270622 166.09254791663147 C 0.0 **** -0.24
9777 H 15.176505527565126 149.24920328203473 165.90288866844776 H 0.0 **** 0.06
9778 H 14.314840455186157 148.24638923986353 167.0943911425865 H 0.0 **** 0.06
9779 H 15.520490755140514 147.5062744714914 166.013243440446 H 0.0 **** 0.06
9780 H 13.962547235465735 148.06657849981642 165.35889166487055 H 0.0 **** 0.06
9781 C 197.23902193426548 99.90122217876754 123.16790802110219 C 0.0 **** -0.24
9782 H 197.2155232067581 100.11930040354378 122.09994441117342 H 0.0 **** 0.06
9783 H 196.23475981342062 99.64921354500436 123.50918476257297 H 0.0 **** 0.06
9784 H 197.59817517432953 100.77679802339463 123.70858302335367 H 0.0 **** 0.06
9785 H 197.90832431480737 99.06045940806445 123.35198643371174 H 0.0 **** 0.06
9786 C 1.0917156665958743 226.83619785374734 231.877628762248 C 0.0 **** -0.24
9787 H 1.6215254059948023 227.7034687389148 232.2718614632343 H 0.0 **** 0.06
9788 H 0.06031133762245133 227.11139099157967 231.65633615063345 H 0.0 **** 0.06
9789 H 1.1047169354728936 226.03526491120024 232.616108245382 H 0.0 **** 0.06
9790 H 1.5820037780268308 226.49698976547722 230.9645564650822 H 0.0 **** 0.06
9791 C 27.53535521684718 207.22186934010486 182.05440061236715 C 0.0 **** -0.24
9792 H 26.787845543326426 206.44505202469975 182.22081194947927 H 0.0 **** 0.06
9793 H 28.173291709422088 206.93764772562702 181.2182471201034 H 0.0 **** 0.06
9794 H 28.141875616661693 207.33861784979266 182.9520455037237 H 0.0 **** 0.06
9795 H 27.036199633989725 208.1636130816473 181.82777759602254 H 0.0 **** 0.06
9796 C 15.295737305092132 193.4647460103622 46.97355627543932 C 0.0 **** -0.24
9797 H 14.893064833667395 194.46256348770763 46.79816033461614 H 0.0 **** 0.06
9798 H 15.550207004028508 193.35563628687 48.02882772421472 H 0.0 **** 0.06
9799 H 16.191367552438578 193.32219372356047 46.368274620500344 H 0.0 **** 0.06
9800 H 14.549962907450464 192.71876118519384 46.70076194333153 H 0.0 **** 0.06
9801 C 140.10311951176715 129.4948437024656 101.01653105290279 C 0.0 **** -0.24
9802 H 139.59961748183937 130.07846351752153 101.78724123615032 H 0.0 **** 0.06
9803 H 139.77497645895048 129.83088651446178 100.03320967674489 H 0.0 **** 0.06
9804 H 139.8582182943791 128.4399126871081 101.14168903180246 H 0.0 **** 0.06
9805 H 141.1823946769715 129.6300200403736 101.10654257855805 H 0.0 **** 0.06
9806 C 34.073695766629626 243.72070873101734 137.50717015486825 C 0.0 **** -0.24
9807 H 35.036603258494836 243.37812058416202 137.88575579996703 H 0.0 **** 0.06
9808 H 33.46820267435497 242.8598062441472 137.22295439746972 H 0.0 **** 0.06
9809 H 34.230241093826805 244.35803077149964 136.63755832497247 H 0.0 **** 0.06
9810 H 33.558674418149636 244.2861666774276 138.28424730526692 H 0.0 **** 0.06
9811 C 153.57407620844685 225.21434350817833 56.15086793287335 C 0.0 **** -0.24
9812 H 153.45976473938134 224.24963488984196 55.65703422207312 H 0.0 **** 0.06
9813 H 153.8376065201233 225.9719640023105 55.411803966869485 H 0.0 **** 0.06
9814 H 154.36240076320652 225.14780327147378 56.90021988995838 H 0.0 **** 0.06
9815 H 152.63601077836802 225.48919468398418 56.63393175524433 H 0.0 **** 0.06
9816 C 43.99422089166251 15.750449463577795 132.6096437285442 C 0.0 **** -0.24
9817 H 43.17230254425843 15.126334121176498 132.9588081994699 H 0.0 **** 0.06
9818 H 43.720289720560956 16.215625160231625 131.6633658403004 H 0.0 **** 0.06
9819 H 44.88351435796467 15.13552737808898 132.46932432836223 H 0.0 **** 0.06
9820 H 44.20140939317719 16.52467521753684 133.34919020259503 H 0.0 **** 0.06
9821 C 56.47531192668853 129.15329956263932 125.10952054668851 C 0.0 **** -0.24
9822 H 56.212009399862694 128.11930492364903 125.33083351203584 H 0.0 **** 0.06
9823 H 57.29534718636509 129.1739673320506 124.39209697572417 H 0.0 **** 0.06
9824 H 56.783133856004696 129.65337465615144 126.0280994136019 H 0.0 **** 0.06
9825 H 55.60998775005547 129.6662923518825 124.68858225353719 H 0.0 **** 0.06
9826 C 122.55451529998754 88.72658251055122 244.0622722148447 C 0.0 **** -0.24
9827 H 121.79691017765597 89.00148369292654 243.32776258472893 H 0.0 **** 0.06
9828 H 122.64183526562155 89.51776299534944 244.80718042180763 H 0.0 **** 0.06
9829 H 123.51326671086343 88.59167503021882 243.5617731928581 H 0.0 **** 0.06
9830 H 122.26623833179727 87.79676368741454 244.55131096828913 H 0.0 **** 0.06
9831 C 63.61552591388383 129.6260239455463 203.61253123212248 C 0.0 **** -0.24
9832 H 63.438800923256025 128.6001235442459 203.93501101350293 H 0.0 **** 0.06
9833 H 64.00089302618275 129.62632357116325 202.593597645128 H 0.0 **** 0.06
9834 H 64.34254474510809 130.09474536730565 204.2766505200862 H 0.0 **** 0.06
9835 H 62.67964463190182 130.1836314116862 203.64809397138976 H 0.0 **** 0.06
9836 C 70.43003511219717 77.77427588410029 41.69314799315387 C 0.0 **** -0.24
9837 H 70.31626958624807 78.85188654987724 41.580209001360686 H 0.0 **** 0.06
9838 H 71.12864480671894 77.40263843987157 40.94209360447323 H 0.0 **** 0.06
9839 H 69.4632263721106 77.28987476114702 41.55990396275911 H 0.0 **** 0.06
9840 H 70.81467866383693 77.55129365616304 42.68818660047313 H 0.0 **** 0.06
9841 C 117.46952333879341 61.91377914726027 73.15004509024723 C 0.0 **** -0.24
9842 H 117.68829763593175 60.856675999776996 73.29849139154712 H 0.0 **** 0.06
9843 H 117.6708159876253 62.1839089102275 72.11334371035844 H 0.0 **** 0.06
9844 H 118.09740091372376 62.5107448431755 73.81033764894542 H 0.0 **** 0.06
9845 H 116.42036660268701 62.102232283293176 73.37767006079599 H 0.0 **** 0.06
9846 C 89.20549024596002 197.1776273975529 1.057368847074457 C 0.0 **** -0.24
9847 H 88.78051127715449 196.24594750393334 1.4298913486553033 H 0.0 **** 0.06
9848 H 89.27914515517918 197.1349403582857 -0.02943994152727214 H 0.0 **** 0.06
9849 H 90.19845634381073 197.31919507210011 1.4846386631976145 H 0.0 **** 0.06
9850 H 88.5636384028218 198.01040977478056 1.3468257596059345 H 0.0 **** 0.06
9851 C 213.6330947970581 24.936090159130075 170.7679754858065 C 0.0 **** -0.24
9852 H 214.62703159342644 24.50762058648266 170.90016114174645 H 0.0 **** 0.06
9853 H 213.63201649568197 25.965359083529563 171.12701850492996 H 0.0 **** 0.06
9854 H 212.90794365195373 24.352990089723903 171.33607732492337 H 0.0 **** 0.06
9855 H 213.36736777572463 24.91864563068384 169.71164722508897 H 0.0 **** 0.06
9856 C 188.69850924542754 176.87722611611792 178.86424992726455 C 0.0 **** -0.24
9857 H 187.80398740696708 176.40605128743442 178.45521258928335 H 0.0 **** 0.06
9858 H 189.41815573102832 176.10853968676207 179.1442636218099 H 0.0 **** 0.06
9859 H 188.43077848557218 177.4635164761903 179.74377504431166 H 0.0 **** 0.06
9860 H 189.13955486904067 177.53193750168253 178.11224372104323 H 0.0 **** 0.06
9861 C 82.93591400928742 178.52578629425815 214.1978521622994 C 0.0 **** -0.24
9862 H 82.0900573244318 178.9556005638485 213.66087941086133 H 0.0 **** 0.06
9863 H 83.1911513901193 179.16412789627887 215.0435858352455 H 0.0 **** 0.06
9864 H 83.79156251922322 178.45209570404703 213.52625116588956 H 0.0 **** 0.06
9865 H 82.66976980014695 177.53185682562057 214.55795915101135 H 0.0 **** 0.06
9866 C 203.44128553713273 66.49481103706725 99.6946453918516 C 0.0 **** -0.24
9867 H 204.50094109869946 66.66294498539591 99.88560777158665 H 0.0 **** 0.06
9868 H 202.96153027975902 66.13264183424988 100.60530337112428 H 0.0 **** 0.06
9869 H 203.3270908262496 65.75338651121757 98.90465121639866 H 0.0 **** 0.06
9870 H 202.97501089377755 67.43092919106843 99.38637224319291 H 0.0 **** 0.06
9871 C 136.00284895629017 124.04128405346728 242.30042039962274 C 0.0 **** -0.24
9872 H 136.92888833262842 124.31303588383125 242.80846331009434 H 0.0 **** 0.06
9873 H 135.3017520450993 123.6227323680732 243.02198479021206 H 0.0 **** 0.06
9874 H 136.2173975294404 123.3010644266594 241.52936697308706 H 0.0 **** 0.06
9875 H 135.56747786995453 124.92843889175413 241.8417779813219 H 0.0 **** 0.06
9876 C 208.5156466283948 104.14259632840225 148.4893845373577 C 0.0 **** -0.24
9877 H 209.09136995704466 104.37128059865864 149.38660955311744 H 0.0 **** 0.06
9878 H 207.5640523542918 104.67282486285458 148.5233640184105 H 0.0 **** 0.06
9879 H 208.33216519077627 103.06943895946122 148.43843955834197 H 0.0 **** 0.06
9880 H 209.07631014465807 104.45677588084533 147.60859897517508 H 0.0 **** 0.06
9881 C 30.902973342129414 31.831798319868085 51.61313977369301 C 0.0 **** -0.24
9882 H 31.146456621116926 31.181084931981417 52.453761306216876 H 0.0 **** 0.06
9883 H 29.91576888305373 32.26876800102393 51.76700800751489 H 0.0 **** 0.06
9884 H 30.904176438860063 31.24942135855619 50.69185089666365 H 0.0 **** 0.06
9885 H 31.64591276380608 32.6261878672629 51.54235255025266 H 0.0 **** 0.06
9886 C 132.3048379245943 148.5850367138584 101.20856438115001 C 0.0 **** -0.24
9887 H 131.80709441095135 149.2794196748195 101.88425828477295 H 0.0 **** 0.06
9888 H 132.39181787987002 149.03924732805677 100.22089045380861 H 0.0 **** 0.06
9889 H 131.72095674618126 147.66711822231306 101.13613519082409 H 0.0 **** 0.06
9890 H 133.2989870266945 148.3540751659807 101.59168041927256 H 0.0 **** 0.06
9891 C 187.48375233121476 243.88093369936806 131.395736530489 C 0.0 **** -0.24
9892 H 188.32226201354348 243.22995454187634 131.64613467846647 H 0.0 **** 0.06
9893 H 187.84780713923902 244.74344367291695 130.8374523629659 H 0.0 **** 0.06
9894 H 186.99983720311374 244.2179005201742 132.31160609777754 H 0.0 **** 0.06
9895 H 186.76668129944386 243.3303500288558 130.78667715078473 H 0.0 **** 0.06
9896 C 164.53478928612168 132.3729189885578 126.87815452337739 C 0.0 **** -0.24
9897 H 163.9009430498239 133.05779902000947 127.4426347032929 H 0.0 **** 0.06
9898 H 165.07372609672154 131.7246446515215 127.5700678708125 H 0.0 **** 0.06
9899 H 165.24763475640756 132.94367059085613 126.2847132935054 H 0.0 **** 0.06
9900 H 163.91494886420932 131.765892386354 126.21840599312989 H 0.0 **** 0.06
9901 C 87.12483165655252 92.95429263696474 92.7352989829457 C 0.0 **** -0.24
9902 H 87.88058735960956 92.60735982200711 92.03054902074635 H 0.0 **** 0.06
9903 H 87.5545526901115 93.72377748862976 93.37712720867987 H 0.0 **** 0.06
9904 H 86.7865072493475 92.11837261522032 93.34684119170501 H 0.0 **** 0.06
9905 H 86.27935547115538 93.36907924310944 92.18625648685409 H 0.0 **** 0.06
9906 C 111.69111582614497 88.64047219211744 55.445560219203884 C 0.0 **** -0.24
9907 H 111.8336213810756 87.77590071361675 56.094649507535536 H 0.0 **** 0.06
9908 H 111.34428616188924 89.48707764498573 56.03922003212077 H 0.0 **** 0.06
9909 H 110.94890753772393 88.40260239642572 54.68312045604526 H 0.0 **** 0.06
9910 H 112.6357970288145 88.89464301442428 54.966924482828745 H 0.0 **** 0.06
9911 C 99.07854546784228 95.00984429267925 112.58931554008532 C 0.0 **** -0.24
9912 H 98.71347563886553 95.79811539114627 111.93162772997852 H 0.0 **** 0.06
9913 H 98.23588820664429 94.5448464264702 113.10178241857739 H 0.0 **** 0.06
9914 H 99.76054247049916 95.43768725947609 113.32428972715346 H 0.0 **** 0.06
9915 H 99.60390145064463 94.25948235918139 111.9990227117737 H 0.0 **** 0.06
9916 C 189.28933935327848 226.75640565872564 170.98984764447025 C 0.0 **** -0.24
9917 H 188.52143323334545 226.46299127698722 171.70565890531182 H 0.0 **** 0.06
9918 H 189.08622929166114 227.7674536704292 170.63438483807354 H 0.0 **** 0.06
9919 H 189.2818358335149 226.06633575805867 170.14646292024102 H 0.0 **** 0.06
9920 H 190.26571289433812 226.72989060699408 171.47234139241263 H 0.0 **** 0.06
9921 C 178.42357384488463 232.89147445943877 96.42262018171445 C 0.0 **** -0.24
9922 H 177.50360360814057 233.3336975708812 96.80539825764143 H 0.0 **** 0.06
9923 H 178.9947152660142 233.6500945694904 95.88542878568566 H 0.0 **** 0.06
9924 H 178.1782582753758 232.0738899338356 95.74513337067435 H 0.0 **** 0.06
9925 H 179.01660017247787 232.51016136080034 97.25353814325987 H 0.0 **** 0.06
9926 C 41.37384367891522 97.59279718299021 229.6942276231391 C 0.0 **** -0.24
9927 H 40.55249942832668 96.87638097373582 229.71793435831862 H 0.0 **** 0.06
9928 H 40.976438581042686 98.59582364601087 229.53925772024365 H 0.0 **** 0.06
9929 H 42.05175634131683 97.3398685660448 228.87815831258987 H 0.0 **** 0.06
9930 H 41.91513024194509 97.55724584966609 230.64004289867495 H 0.0 **** 0.06
9931 C 110.99315669931198 243.6060977117579 88.67883399393892 C 0.0 **** -0.24
9932 H 112.02583481804808 243.26407810770183 88.61436650390257 H 0.0 **** 0.06
9933 H 110.59035161769057 243.3625150230405 89.66241374052868 H 0.0 **** 0.06
9934 H 110.39846089373822 243.11242226379065 87.90967404402008 H 0.0 **** 0.06
9935 H 110.957979467771 244.6853754524988 88.52888168730425 H 0.0 **** 0.06
9936 C 40.81479512666722 233.57723326401123 150.5869987705666 C 0.0 **** -0.24
9937 H 40.5216788614664 234.25825540318263 151.38679454608754 H 0.0 **** 0.06
9938 H 41.89855348818021 233.4563107565184 150.59275556231742 H 0.0 **** 0.06
9939 H 40.499967484196105 233.98701535968732 149.62762931510102 H 0.0 **** 0.06
9940 H 40.339634777989886 232.60867913160834 150.74249187078948 H 0.0 **** 0.06
9941 C 191.41279881611777 107.71101963862819 79.07746659075752 C 0.0 **** -0.24
9942 H 190.95171481668112 108.52591254449689 79.63511850891749 H 0.0 **** 0.06
9943 H 192.45641618697618 107.61107593969703 79.37658297972763 H 0.0 **** 0.06
9944 H 191.3595449168273 107.92449498840895 78.01057538154379 H 0.0 **** 0.06
9945 H 190.8845599697416 106.7818286626551 79.28967029989332 H 0.0 **** 0.06
9946 C 71.91626344946266 20.559491084100188 61.431566645277854 C 0.0 **** -0.24
9947 H 71.18975326020066 20.279665668943295 62.19442787166929 H 0.0 **** 0.06
9948 H 72.92452345671731 20.40603920929911 61.81575129535065 H 0.0 **** 0.06
9949 H 71.78220817102053 21.609080773801765 61.1693964009998 H 0.0 **** 0.06
9950 H 71.7666483828234 19.941761589772085 60.54517328566567 H 0.0 **** 0.06
9951 C 26.546171479375147 149.00478451869486 47.43838884998925 C 0.0 **** -0.24
9952 H 25.89211129215991 149.7516654867547 46.988145957252556 H 0.0 **** 0.06
9953 H 26.240984240744893 148.8307186987422 48.46993254905769 H 0.0 **** 0.06
9954 H 27.574367523349053 149.36561195881737 47.41917897606115 H 0.0 **** 0.06
9955 H 26.47690999949279 148.074501663783 46.875027312948504 H 0.0 **** 0.06
9956 C 217.6771448948389 60.74370549149225 77.690745910505 C 0.0 **** -0.24
9957 H 218.7502100350013 60.70804645807206 77.88277773625313 H 0.0 **** 0.06
9958 H 217.16062215168006 61.09658019477715 78.58412840515197 H 0.0 **** 0.06
9959 H 217.3206318879278 59.746515579358146 77.43387178185404 H 0.0 **** 0.06
9960 H 217.47998806265744 61.42504211182526 76.86358138365799 H 0.0 **** 0.06
9961 C 1.1743300453915992 149.0740940615648 164.69146169142942 C 0.0 **** -0.24
9962 H 0.3418401502149493 149.62983079884725 165.12117997950537 H 0.0 **** 0.06
9963 H 0.8635574970679443 148.047334131713 164.49654877351972 H 0.0 **** 0.06
9964 H 2.0106023293449766 149.07370752407104 165.39156032750836 H 0.0 **** 0.06
9965 H 1.4823331418064924 149.54445246064725 163.75748972127977 H 0.0 **** 0.06
9966 C 44.71097149147552 247.37201810885904 164.41342685930792 C 0.0 **** -0.24
9967 H 44.45319963805569 247.02002668473548 163.414625439364 H 0.0 **** 0.06
9968 H 44.99529322697498 248.42359505676563 164.36433865547448 H 0.0 **** 0.06
9969 H 45.54469065788686 246.78727932781712 164.80023102702793 H 0.0 **** 0.06
9970 H 43.850035705880984 247.2584372175777 165.07187542906627 H 0.0 **** 0.06
9971 C 227.07024522764897 14.549832282171565 198.6686333307165 C 0.0 **** -0.24
9972 H 227.86400651926164 13.807699867991232 198.7436536258304 H 0.0 **** 0.06
9973 H 227.47709131428854 15.53892301387907 198.88135936291422 H 0.0 **** 0.06
9974 H 226.28472667945073 14.316718011224765 199.3873814889634 H 0.0 **** 0.06
9975 H 226.65504697980134 14.537423963498924 197.6601572368346 H 0.0 **** 0.06
9976 C 243.4989951838399 235.5542512844185 133.81217956595725 C 0.0 **** -0.24
9977 H 242.6837330188493 234.83565168118 133.90615189598265 H 0.0 **** 0.06
9978 H 243.74281907299687 235.68952138822198 132.75757750974066 H 0.0 **** 0.06
9979 H 244.3752505986327 235.1814717729398 134.34278059789472 H 0.0 **** 0.06
9980 H 243.1929725430632 236.50815093150467 134.24057560455736 H 0.0 **** 0.06
9981 C 105.1956609398978 143.79680359982586 223.3723648992766 C 0.0 **** -0.24
9982 H 104.48863216583962 143.1824280778879 223.93026238498612 H 0.0 **** 0.06
9983 H 105.22697179267163 143.46335065685477 222.3345424937005 H 0.0 **** 0.06
9984 H 106.1874710168832 143.70078347953802 223.8157456501989 H 0.0 **** 0.06
9985 H 104.88083280913523 144.83928639749277 223.41050184058446 H 0.0 **** 0.06
9986 C 44.82582560393669 189.9371438779433 143.24007428809463 C 0.0 **** -0.24
9987 H 45.682460132240294 189.60697678953144 142.6521937296869 H 0.0 **** 0.06
9988 H 44.77749468028138 191.0258005007225 143.23156291463624 H 0.0 **** 0.06
9989 H 44.93323611751883 189.5857737666595 144.26660806835568 H 0.0 **** 0.06
9990 H 43.9115900713425 189.5284735021801 142.81111919524602 H 0.0 **** 0.06
9991 C 34.86200569476564 67.82001894475042 29.505515226437268 C 0.0 **** -0.24
9992 H 34.41845238848201 68.66835438653683 30.027373462012605 H 0.0 **** 0.06
9993 H 35.81852384550717 67.57046353819132 29.966124288127418 H 0.0 **** 0.06
9994 H 35.01833938572062 68.07999694314648 28.45839737719791 H 0.0 **** 0.06
9995 H 34.19201972414912 66.96368447637147 29.571451796391955 H 0.0 **** 0.06
9996 C 230.23111245032362 127.39621415235735 217.250446921496 C 0.0 **** -0.24
9997 H 229.2530079984383 127.6859638875076 216.8661952551546 H 0.0 **** 0.06
9998 H 230.23887434652158 126.3260340780906 217.45705507714752 H 0.0 **** 0.06
9999 H 230.43772747041456 127.94583423134424 218.16886598319275 H 0.0 **** 0.06
10000 H 230.9961777619762 127.62876896801737 216.50926279991756 H 0.0 **** 0.06
10001 C 176.28562804880917 82.41682060189987 109.67577136777922 C 0.0 **** -0.24
10002 H 176.03501406227144 82.32770583881165 110.7332536450372 H 0.0 **** 0.06
10003 H 175.81390847650115 81.60627653579101 109.12183318172308 H 0.0 **** 0.06
10004 H 177.3678501682689 82.36060014503224 109.55290507187803 H 0.0 **** 0.06
10005 H 175.9261679330806 83.37423024289191 109.29763808351478 H 0.0 **** 0.06
10006 C 139.55548153272773 214.582111173231 235.3040830927065 C 0.0 **** -0.24
10007 H 140.40028335537718 214.16116010312481 235.84980523072267 H 0.0 **** 0.06
10008 H 139.91955459218335 215.30234370001915 234.57182256678718 H 0.0 **** 0.06
10009 H 138.88388054533831 215.0803471340829 236.0027057396914 H 0.0 **** 0.06
10010 H 139.0196463311925 213.78223577202095 234.79260723547856 H 0.0 **** 0.06
10011 C 167.54188090764842 41.366608123071444 103.1445462550135 C 0.0 **** -0.24
10012 H 166.96555718162932 40.52159953330275 103.52222604291262 H 0.0 **** 0.06
10013 H 166.91445776337045 41.97011466239499 102.48885988092113 H 0.0 **** 0.06
10014 H 168.4029863311535 40.997954686719396 102.58692392319301 H 0.0 **** 0.06
10015 H 167.88379067716107 41.97528538782791 103.98168499309759 H 0.0 **** 0.06
10016 C 93.61552483887186 144.58893621027096 233.457088729053 C 0.0 **** -0.24
10017 H 92.72905782424493 143.97864604384034 233.633221421803 H 0.0 **** 0.06
10018 H 94.40120884196114 144.2971666585419 234.15366588960728 H 0.0 **** 0.06
10019 H 93.36774524289015 145.63951798386162 233.6053714595023 H 0.0 **** 0.06
10020 H 93.96145684860602 144.43774166391097 232.43438211115011 H 0.0 **** 0.06
10021 C 42.63711687634006 176.71145758981885 202.12675544634797 C 0.0 **** -0.24
10022 H 43.35773029243788 176.35591028591162 201.39032283736293 H 0.0 **** 0.06
10023 H 42.53894085023555 177.79453297869048 202.04345026132742 H 0.0 **** 0.06
10024 H 42.98204288927664 176.45336662916267 203.12811485867581 H 0.0 **** 0.06
10025 H 41.669481491156176 176.24429873730674 201.9434798687831 H 0.0 **** 0.06
10026 C 106.7849206648576 10.116725060545576 138.47207194372888 C 0.0 **** -0.24
10027 H 107.00457947309664 9.049022842331539 138.5015771980692 H 0.0 **** 0.06
10028 H 106.22458969826684 10.396166816754231 139.3637899895383 H 0.0 **** 0.06
10029 H 106.19306718851536 10.34113295182911 137.58554438346647 H 0.0 **** 0.06
10030 H 107.71813977010257 10.677863357571226 138.4384494719972 H 0.0 **** 0.06
10031 C 107.94288386076681 235.6532382351736 15.234427768360831 C 0.0 **** -0.24
10032 H 108.8737984465418 236.1918556143092 15.057662611963394 H 0.0 **** 0.06
10033 H 108.16582065393266 234.67326420180643 15.65725948001436 H 0.0 **** 0.06
10034 H 107.40912308420496 235.53042196893696 14.292540748708717 H 0.0 **** 0.06
10035 H 107.32326838671429 236.21762481708913 15.932422778812239 H 0.0 **** 0.06
10036 C 183.33307409176345 110.14318176504105 237.392560898219 C 0.0 **** -0.24
10037 H 182.36294300715394 109.7943324414538 237.74533049627453 H 0.0 **** 0.06
10038 H 183.51439959152148 109.75641138364509 236.3895806852798 H 0.0 **** 0.06
10039 H 184.11340169452913 109.78929845908377 238.06570352725836 H 0.0 **** 0.06
10040 H 183.33941128289717 111.23311067796024 237.36914342521666 H 0.0 **** 0.06
10041 C 122.38070091738268 189.04023963407985 239.62385947788187 C 0.0 **** -0.24
10042 H 123.3762356684199 189.0837210211762 240.0669187391411 H 0.0 **** 0.06
10043 H 122.44238294626382 188.5820083692571 238.63673435652134 H 0.0 **** 0.06
10044 H 121.98079971098329 190.05082534955253 239.53205468086753 H 0.0 **** 0.06
10045 H 121.72514167346085 188.44686946158743 240.2610850919394 H 0.0 **** 0.06
10046 C 131.81907925676694 174.64789979732515 121.28545189481676 C 0.0 **** -0.24
10047 H 131.3633837895945 175.2538058157866 122.06791729125612 H 0.0 **** 0.06
10048 H 131.03697648924745 174.1982877912896 120.67313099802757 H 0.0 **** 0.06
10049 H 132.422294472878 173.86223587901497 121.73899921020077 H 0.0 **** 0.06
10050 H 132.45224530168076 175.27761988787768 120.66039274833943 H 0.0 **** 0.06
10051 C 151.5769906113608 225.33182034398658 70.756960060296 C 0.0 **** -0.24
10052 H 152.28241060717065 224.5591424341893 70.44954493948825 H 0.0 **** 0.06
10053 H 150.56515919594133 225.02730755055813 70.48996621827405 H 0.0 **** 0.06
10054 H 151.8203575886254 226.26651225992276 70.25185798669077 H 0.0 **** 0.06
10055 H 151.64204785514102 225.47520695388363 71.83607053451587 H 0.0 **** 0.06
10056 C 227.42991960097928 72.95884848741781 231.4658221980235 C 0.0 **** -0.24
10057 H 226.8512306602373 72.39037370820739 232.19422120217928 H 0.0 **** 0.06
10058 H 226.76042555511063 73.5965278262878 230.8875044963043 H 0.0 **** 0.06
10059 H 227.94530655522763 72.2707148404036 230.79560884200959 H 0.0 **** 0.06
10060 H 228.16227893758148 73.57712472391731 231.98533530708653 H 0.0 **** 0.06
10061 C 138.30701659860944 162.39913115933186 159.7412314444128 C 0.0 **** -0.24
10062 H 139.3482193896642 162.23496790196248 159.46507436190325 H 0.0 **** 0.06
10063 H 137.69192563800055 162.4269237985594 158.84036337778966 H 0.0 **** 0.06
10064 H 138.21701837593537 163.34603884096342 160.27153108658806 H 0.0 **** 0.06
10065 H 137.97033308058056 161.58776878962183 160.38595842175354 H 0.0 **** 0.06
10066 C 105.42802780364772 234.28475750414702 73.34954465412062 C 0.0 **** -0.24
10067 H 105.32473064311955 234.18319716699307 72.26857806030392 H 0.0 **** 0.06
10068 H 104.6613955280406 233.68928032456716 73.84461883540129 H 0.0 **** 0.06
10069 H 105.3109707790224 235.33228894511961 73.62744950061182 H 0.0 **** 0.06
10070 H 106.41424517737323 233.9357555929002 73.65467171156092 H 0.0 **** 0.06
10071 C 224.30617059487452 86.2592722741708 92.99628676245837 C 0.0 **** -0.24
10072 H 224.2831239485355 86.25835447426635 91.90627548536798 H 0.0 **** 0.06
10073 H 223.28646778248498 86.23096161200246 93.38104935819217 H 0.0 **** 0.06
10074 H 224.80283289248752 87.16329031564669 93.34857004494532 H 0.0 **** 0.06
10075 H 224.85165208636334 85.38383130555133 93.34815267241612 H 0.0 **** 0.06
10076 C 238.5710653883777 56.42031536095675 188.10429517522087 C 0.0 **** -0.24
10077 H 237.94849119127392 55.64887766842767 187.65329871700644 H 0.0 **** 0.06
10078 H 239.5764390448252 56.02863584973639 188.2633440794369 H 0.0 **** 0.06
10079 H 238.14257270062961 56.719239188858296 189.06160920074183 H 0.0 **** 0.06
10080 H 238.6173026201469 57.28379429763439 187.44196082084426 H 0.0 **** 0.06
10081 C 57.04174172237015 197.4832962139916 224.2569908099382 C 0.0 **** -0.24
10082 H 56.60988465487523 198.04903155988202 225.08323446150297 H 0.0 **** 0.06
10083 H 56.246599245543365 197.14287067926003 223.59460387304378 H 0.0 **** 0.06
10084 H 57.581587516949554 196.6222061402038 224.65110877866957 H 0.0 **** 0.06
10085 H 57.730685802453564 198.12070384805907 223.70235477072356 H 0.0 **** 0.06
10086 C 12.466438235266253 82.93084945432139 15.498614949148447 C 0.0 **** -0.24
10087 H 13.063987850949133 82.20338441355702 14.94929478790587 H 0.0 **** 0.06
10088 H 11.89485983196468 83.53769364724926 14.795260956701014 H 0.0 **** 0.06
10089 H 13.125321176428102 83.57437197125918 16.082392833507498 H 0.0 **** 0.06
10090 H 11.782847433116956 82.40849853878447 16.16782844590952 H 0.0 **** 0.06
10091 C 28.583207186243015 162.0284331295324 27.775135588676804 C 0.0 **** -0.24
10092 H 28.05192254275417 162.12931143604848 26.82890212860943 H 0.0 **** 0.06
10093 H 28.04940940574008 161.32936966919567 28.418690383536855 H 0.0 **** 0.06
10094 H 28.64071384130679 163.0019502104833 28.263818577765093 H 0.0 **** 0.06
10095 H 29.58984243688238 161.65576174375303 27.589323678329308 H 0.0 **** 0.06
10096 C 3.4085455822861377 38.41775561855383 153.44356887951224 C 0.0 **** -0.24
10097 H 2.5849052921376767 38.85992296510557 152.8809879507206 H 0.0 **** 0.06
10098 H 3.2246714614177847 37.35224682365566 153.57906012877788 H 0.0 **** 0.06
10099 H 3.483384116767894 38.901327944915636 154.41706030654322 H 0.0 **** 0.06
10100 H 4.339346699028539 38.55895883879003 152.89483716526132 H 0.0 **** 0.06
10101 C 141.94909862877722 172.89830532670086 47.57059690955508 C 0.0 **** -0.24
10102 H 141.894382721197 172.9158667242923 48.65954977618371 H 0.0 **** 0.06
10103 H 141.8744513833871 171.8688699805817 47.219368733719534 H 0.0 **** 0.06
10104 H 142.89960827351467 173.32513736534068 47.24848139011914 H 0.0 **** 0.06
10105 H 141.12841506918838 173.48429766460015 47.15695812625137 H 0.0 **** 0.06
10106 C 18.66825167734335 163.30459616403877 172.08076239788124 C 0.0 **** -0.24
10107 H 18.218378463602875 162.35049606739474 172.35431067614087 H 0.0 **** 0.06
10108 H 19.234667423098088 163.69500142188267 172.9275566633879 H 0.0 **** 0.06
10109 H 17.883976955258987 164.0121606747687 171.8111512044117 H 0.0 **** 0.06
10110 H 19.335841334284964 163.16183032010065 171.2313581788082 H 0.0 **** 0.06
10111 C 108.33842588339198 141.607411183804 137.77370807256085 C 0.0 **** -0.24
10112 H 109.16456450022491 141.98465370916205 137.17060473460353 H 0.0 **** 0.06
10113 H 108.33511968025931 142.11281294662973 138.7396810020578 H 0.0 **** 0.06
10114 H 108.46051305109404 140.5344218411345 137.9253463717942 H 0.0 **** 0.06
10115 H 107.39645187983405 141.79747232920454 137.25969318729693 H 0.0 **** 0.06
10116 C 233.40824205687812 224.1257817175792 4.249793717720479 C 0.0 **** -0.24
10117 H 233.38438532030793 225.16431733975503 3.923542032756984 H 0.0 **** 0.06
10118 H 233.59623984746565 223.4791738331777 3.3927606716029715 H 0.0 **** 0.06
10119 H 232.45075852829882 223.8634631575454 4.69947452857906 H 0.0 **** 0.06
10120 H 234.20301154404655 223.99443830697842 4.985386647506772 H 0.0 **** 0.06
10121 C 237.4318352173688 170.47731357062193 70.12953859701892 C 0.0 **** -0.24
10122 H 238.08164581839327 171.2372049469432 69.69509084266232 H 0.0 **** 0.06
10123 H 238.02314344979158 169.8126567159363 70.76116620162287 H 0.0 **** 0.06
10124 H 236.9642086852612 169.90051186762483 69.33109398491604 H 0.0 **** 0.06
10125 H 236.66072073631693 170.9584600070744 70.73039225934139 H 0.0 **** 0.06
10126 C 69.43420367678058 113.2990196113025 232.27748461863922 C 0.0 **** -0.24
10127 H 70.41285519899006 112.95019657974788 231.95104895992452 H 0.0 **** 0.06
10128 H 69.41839980431686 114.3891882376447 232.27462474550538 H 0.0 **** 0.06
10129 H 69.23604361328933 112.93580561425168 233.28558716521127 H 0.0 **** 0.06
10130 H 68.66905784039395 112.92329228635188 231.59877526460832 H 0.0 **** 0.06
10131 C 137.21003603871006 123.00935733165682 59.055992669092745 C 0.0 **** -0.24
10132 H 136.92121562106288 124.01590571648163 59.36085935803001 H 0.0 **** 0.06
10133 H 137.5942221216214 122.4661603523744 59.91912398014358 H 0.0 **** 0.06
10134 H 137.98207587681108 123.0702122941062 58.28963001287994 H 0.0 **** 0.06
10135 H 136.3410407104105 122.48884731820871 58.655257094900776 H 0.0 **** 0.06
10136 C 164.0282118271679 78.10870714710671 60.94510638111862 C 0.0 **** -0.24
10137 H 164.96382045128016 78.44187571236938 60.49400462347364 H 0.0 **** 0.06
10138 H 163.27699246419803 78.89134740302458 60.84044853517997 H 0.0 **** 0.06
10139 H 164.19022830702195 77.89844844245764 62.00219885790625 H 0.0 **** 0.06
10140 H 163.6854599341592 77.20494119860578 60.44309064273173 H 0.0 **** 0.06
10141 C 204.7791163355277 39.93161628007951 73.81166261911201 C 0.0 **** -0.24
10142 H 204.05614546903107 40.70866549181133 73.56350900236353 H 0.0 **** 0.06
10143 H 205.50141192420978 40.32274918169301 74.5275848889888 H 0.0 **** 0.06
10144 H 205.2978776562966 39.61710169411455 72.9057488029668 H 0.0 **** 0.06
10145 H 204.2602637998762 39.07807818795979 74.24771116958803 H 0.0 **** 0.06
10146 C 120.42336520505856 243.5938408520903 215.20662366876726 C 0.0 **** -0.24
10147 H 119.58499279990065 244.2238341191986 214.9069892636604 H 0.0 **** 0.06
10148 H 120.14281612012414 243.00911279425222 216.08210631763006 H 0.0 **** 0.06
10149 H 121.28120550744774 244.22219548883766 215.4466341628919 H 0.0 **** 0.06
10150 H 120.6828346651969 242.92191100630532 214.38801786698886 H 0.0 **** 0.06
10151 C 186.2300897149872 129.7438923521934 36.84440033680767 C 0.0 **** -0.24
10152 H 187.17199820369558 129.21233552009323 36.705072261877646 H 0.0 **** 0.06
10153 H 185.56829934286367 129.53587109765922 36.00379446739288 H 0.0 **** 0.06
10154 H 186.4230303994114 130.81549462030276 36.89952787204008 H 0.0 **** 0.06
10155 H 185.75921927607328 129.41091659870563 37.76975959352123 H 0.0 **** 0.06
10156 C 89.28693351374895 134.23202342037936 209.332344710276 C 0.0 **** -0.24
10157 H 90.06934037414217 134.64910270999889 209.9658444605193 H 0.0 **** 0.06
10158 H 89.68190780742296 133.38034192493095 208.77905680983815 H 0.0 **** 0.06
10159 H 88.94339195465369 134.99293640808014 208.6313773829864 H 0.0 **** 0.06
10160 H 88.45161983164269 133.90765590565587 209.95332566134158 H 0.0 **** 0.06
10161 C 216.22993748698832 87.3378620878675 228.21248151091618 C 0.0 **** -0.24
10162 H 215.2700993693847 86.97309425594608 227.84833761823415 H 0.0 **** 0.06
10163 H 216.7728115420692 87.81203476166303 227.3936258313114 H 0.0 **** 0.06
10164 H 216.8138943555599 86.50286576101985 228.59950874251047 H 0.0 **** 0.06
10165 H 216.06499113150159 88.06515291029132 229.00749240986477 H 0.0 **** 0.06
10166 C 243.78332321000656 200.29210298094696 177.69077024563444 C 0.0 **** -0.24
10167 H 243.54457462739498 200.6981672305302 176.7071836858787 H 0.0 **** 0.06
10168 H 244.17439535508822 201.08625000500166 178.32597071846675 H 0.0 **** 0.06
10169 H 244.5318979142137 199.50697318038868 177.5871571578481 H 0.0 **** 0.06
10170 H 242.8816003574061 199.8773879786222 178.1407234961207 H 0.0 **** 0.06
10171 C 111.21980085237792 38.13322289529005 223.52479848482668 C 0.0 **** -0.24
10172 H 111.60752606481785 37.51526553661617 224.33492590412962 H 0.0 **** 0.06
10173 H 111.48489394655505 37.6850151044157 222.56745842382017 H 0.0 **** 0.06
10174 H 111.65276745542272 39.1317890365669 223.59117739669927 H 0.0 **** 0.06
10175 H 110.13538525346391 38.20185217749051 223.6070687286304 H 0.0 **** 0.06
10176 C 119.06320471076396 29.33969063898357 125.76084635961084 C 0.0 **** -0.24
10177 H 118.87979301914743 28.264739840114856 125.75077105714831 H 0.0 **** 0.06
10178 H 119.0604556583342 29.69911666313746 126.78987500102346 H 0.0 **** 0.06
10179 H 118.28116333904788 29.84621268379638 125.19581160543501 H 0.0 **** 0.06
10180 H 120.03270081814719 29.546144969093092 125.30524511286956 H 0.0 **** 0.06
10181 C 195.41094108943076 163.17693802837059 79.74279774224746 C 0.0 **** -0.24
10182 H 195.7255393404605 163.8970353769171 80.4984486683961 H 0.0 **** 0.06
10183 H 196.27362682875005 162.8698058890097 79.15190288746152 H 0.0 **** 0.06
10184 H 194.6681438116472 163.637843989902 79.09044853840362 H 0.0 **** 0.06
10185 H 194.9743881164176 162.30569918176326 80.23128617043079 H 0.0 **** 0.06
10186 C 181.92704466258868 119.38095971357035 233.73553804015057 C 0.0 **** -0.24
10187 H 181.91340542262435 118.52374917456342 234.4082397767059 H 0.0 **** 0.06
10188 H 181.32441131760734 119.16094808188308 232.8546370824967 H 0.0 **** 0.06
10189 H 182.95407719150853 119.58819995905031 233.4314636171456 H 0.0 **** 0.06
10190 H 181.51758168286105 120.25125882114014 234.24827783720298 H 0.0 **** 0.06
10191 C 193.77017817748805 8.910206534456591 44.63382298225466 C 0.0 **** -0.24
10192 H 193.6250315905199 9.454878336390465 43.700421849839046 H 0.0 **** 0.06
10193 H 192.80075914910594 8.616997061413912 45.037118809416455 H 0.0 **** 0.06
10194 H 194.283908146766 9.549338188441851 45.35127946688132 H 0.0 **** 0.06
10195 H 194.3698104555085 8.019814576512402 44.44575688279278 H 0.0 **** 0.06
10196 C 247.8623134824093 205.8220091765008 11.160695896545732 C 0.0 **** -0.24
10197 H 247.13405315619354 205.28747435335387 11.771632064360404 H 0.0 **** 0.06
10198 H 248.73899681321518 206.05777397412626 11.765370092430402 H 0.0 **** 0.06
10199 H 247.4173128171154 206.74462521261822 10.789534723780307 H 0.0 **** 0.06
10200 H 248.15921619205264 205.19610221280968 10.31882486825964 H 0.0 **** 0.06
10201 C 147.26539014395314 112.74748898246318 93.45358062963575 C 0.0 **** -0.24
10202 H 147.4986994561438 113.68070115287813 92.9423327786298 H 0.0 **** 0.06
10203 H 148.18961289883538 112.27419791848146 93.78528597827466 H 0.0 **** 0.06
10204 H 146.7397990874017 112.07973572547695 92.7698283256156 H 0.0 **** 0.06
10205 H 146.63217793206493 112.95471137420157 94.31676470776142 H 0.0 **** 0.06
10206 C 2.875881088477769 120.39550614909385 77.98326924142006 C 0.0 **** -0.24
10207 H 2.6100302508490074 120.87580376500043 77.04146135023856 H 0.0 **** 0.06
10208 H 2.827403263384042 121.1270302959131 78.79044450180666 H 0.0 **** 0.06
10209 H 3.887018742326717 119.99584494138395 77.91467535891101 H 0.0 **** 0.06
10210 H 2.1769347194702675 119.58339507731563 78.18584060902228 H 0.0 **** 0.06
10211 C 225.18335699687287 46.65898122032908 112.86535041243661 C 0.0 **** -0.24
10212 H 225.35174827392618 45.61693770747942 113.13595391889734 H 0.0 **** 0.06
10213 H 224.96869168349667 46.727046838709754 111.79901629933457 H 0.0 **** 0.06
10214 H 226.07669187127084 47.241598652328975 113.09428340847674 H 0.0 **** 0.06
10215 H 224.3394364774627 47.05044042436046 113.43250683519153 H 0.0 **** 0.06
10216 C 28.393758030103726 208.2078133251265 113.74398214992775 C 0.0 **** -0.24
10217 H 28.32830314569148 208.49741927221163 114.792940026173 H 0.0 **** 0.06
10218 H 27.99786631666811 207.19973715347703 113.61999523706217 H 0.0 **** 0.06
10219 H 29.43690741456541 208.22983521172557 113.42651249750054 H 0.0 **** 0.06
10220 H 27.814658605988456 208.90354282490895 113.13756490101531 H 0.0 **** 0.06
10221 C 202.84390753012167 167.22432818193963 31.87236883871013 C 0.0 **** -0.24
10222 H 201.8557916262672 167.01556246133913 32.28270578043663 H 0.0 **** 0.06
10223 H 203.11891950600108 166.43650051078436 31.170337106547606 H 0.0 **** 0.06
10224 H 203.57231946982228 167.26001346018057 32.68186075753728 H 0.0 **** 0.06
10225 H 202.8267596485353 168.18310794574472 31.35486340246578 H 0.0 **** 0.06
10226 C 45.08082681898621 16.398188706647574 17.027552388389466 C 0.0 **** -0.24
10227 H 44.562582356424755 15.440086300014144 17.080505542651025 H 0.0 **** 0.06
10228 H 46.15318420059043 16.236357505687437 17.141380711963137 H 0.0 **** 0.06
10229 H 44.72409707224443 17.047288672057363 17.826488355722148 H 0.0 **** 0.06
10230 H 44.88324623365749 16.865623390918557 16.06338679679962 H 0.0 **** 0.06
10231 C 242.3475810231443 134.27107187884363 82.46671528244045 C 0.0 **** -0.24
10232 H 243.03264478607588 134.55099566825575 83.26640014084936 H 0.0 **** 0.06
10233 H 242.77449768934122 133.44773441213084 81.89368548477881 H 0.0 **** 0.06
10234 H 242.1868773331127 135.12623669771185 81.80884292140487 H 0.0 **** 0.06
10235 H 241.39476095642834 133.95960863124145 82.89537615073002 H 0.0 **** 0.06
10236 C 40.970889840766745 106.69280787585086 228.98816118955352 C 0.0 **** -0.24
10237 H 40.58273604741579 105.82796515111517 228.45003363575432 H 0.0 **** 0.06
10238 H 41.7228304871102 107.19263449933246 228.37626316286892 H 0.0 **** 0.06
10239 H 41.42410250219095 106.3646916148789 229.92375275359097 H 0.0 **** 0.06
10240 H 40.15706790055455 107.38482635377832 229.2009635135443 H 0.0 **** 0.06
10241 C 198.5679480537165 175.96809670017166 110.3902659224685 C 0.0 **** -0.24
10242 H 198.97384757451707 175.48613297980467 109.50133504105312 H 0.0 **** 0.06
10243 H 198.36895169130133 177.0178999477975 110.17619782041072 H 0.0 **** 0.06
10244 H 199.28887474076643 175.89389970562547 111.20440785518821 H 0.0 **** 0.06
10245 H 197.64106960932662 175.47349037350395 110.68090229498884 H 0.0 **** 0.06
10246 C 243.5962844689227 59.87562155251399 50.03724760423762 C 0.0 **** -0.24
10247 H 243.4642441993683 60.90997364621251 49.72145230307147 H 0.0 **** 0.06
10248 H 242.62460833679606 59.38343552818881 50.08363709830135 H 0.0 **** 0.06
10249 H 244.06380057263254 59.85352755465763 51.02201819894117 H 0.0 **** 0.06
10250 H 244.23419226418002 59.35659084429173 49.321875437129634 H 0.0 **** 0.06
10251 C 233.99954968354706 69.90910752900524 207.01280000912163 C 0.0 **** -0.24
10252 H 233.13071854188564 69.54140280308084 206.465458008168 H 0.0 **** 0.06
10253 H 234.26219463627328 69.19757062892083 207.79727337555096 H 0.0 **** 0.06
10254 H 233.7642819971542 70.87437363294484 207.46155388036107 H 0.0 **** 0.06
10255 H 234.8391737632167 70.02194664922999 206.32751517842283 H 0.0 **** 0.06
10256 C 184.4477057944862 71.3335369451419 124.42613738931547 C 0.0 **** -0.24
10257 H 183.41394014809745 71.26322054790404 124.76563373566873 H 0.0 **** 0.06
10258 H 184.7699867999252 72.37426830633268 124.46011910205456 H 0.0 **** 0.06
10259 H 184.520069669015 70.96209801923533 123.40496348514435 H 0.0 **** 0.06
10260 H 185.08391827152568 70.7346395653311 125.07722968261359 H 0.0 **** 0.06
10261 C 145.7145176764816 160.34443659930312 234.71370352731566 C 0.0 **** -0.24
10262 H 145.50184689992062 159.2789877864753 234.63110492791435 H 0.0 **** 0.06
10263 H 146.775357427864 160.5187618669976 234.53009986340197 H 0.0 **** 0.06
10264 H 145.45813347866996 160.68863114065974 235.71562858909363 H 0.0 **** 0.06
10265 H 145.12395107665026 160.89140498049747 233.97956645667648 H 0.0 **** 0.06
10266 C 184.99936839444712 233.90330041984367 99.13738875877885 C 0.0 **** -0.24
10267 H 183.9330148635052 234.0383507424617 99.31632483478191 H 0.0 **** 0.06
10268 H 185.15042061701195 233.0637232695952 98.45875188579541 H 0.0 **** 0.06
10269 H 185.50247957440718 233.70197742213185 100.0838568107493 H 0.0 **** 0.06
10270 H 185.41083392111076 234.80975232441978 98.69380152894718 H 0.0 **** 0.06
10271 C 100.2145846445313 17.127248970242803 171.3532421830704 C 0.0 **** -0.24
10272 H 99.80093107279967 16.702280096320678 172.26831745717112 H 0.0 **** 0.06
10273 H 101.28165951629441 17.309471212435255 171.48744672365308 H 0.0 **** 0.06
10274 H 99.71038566688574 18.067027241403935 171.128821244304 H 0.0 **** 0.06
10275 H 100.06685716622158 16.42916449284006 170.52967056085078 H 0.0 **** 0.06
10276 C 9.695732634695489 71.3001370949072 35.71310946908818 C 0.0 **** -0.24
10277 H 9.393820571667248 70.29503643826752 35.42044185069683 H 0.0 **** 0.06
10278 H 9.465878535866352 71.45685406652063 36.76608640812108 H 0.0 **** 0.06
10279 H 9.156127758540677 72.03080696314379 35.11024572480484 H 0.0 **** 0.06
10280 H 10.768139592521848 71.41815800073942 35.552081616528554 H 0.0 **** 0.06
10281 C 163.87721097104603 41.32932589437027 198.09570190315827 C 0.0 **** -0.24
10282 H 163.51880621996176 41.902360995343855 197.2407642604083 H 0.0 **** 0.06
10283 H 163.7297416070798 40.26550303388582 197.90748318743528 H 0.0 **** 0.06
10284 H 163.32372106152414 41.620661446986034 198.98754329620155 H 0.0 **** 0.06
10285 H 164.93886300508538 41.52757097771995 198.2458732150892 H 0.0 **** 0.06
10286 C 230.37591121781125 8.118679195022736 187.63767906208642 C 0.0 **** -0.24
10287 H 229.45905439871905 7.594287478398414 187.36923080685835 H 0.0 **** 0.06
10288 H 230.26736047245845 8.55392750925381 188.63131089221469 H 0.0 **** 0.06
10289 H 230.56764372124752 8.908920566707849 186.91278543048833 H 0.0 **** 0.06
10290 H 231.20856821630701 7.41542474815202 187.63794877188795 H 0.0 **** 0.06
10291 C 219.1674192914528 58.26945097352444 206.4042295262565 C 0.0 **** -0.24
10292 H 219.4298776859057 59.175359600013394 205.8573449626627 H 0.0 **** 0.06
10293 H 219.98286396222701 58.003900681457935 207.0778723185646 H 0.0 **** 0.06
10294 H 218.99792822682912 57.45642324355805 205.69912581276174 H 0.0 **** 0.06
10295 H 218.26023125996326 58.443986676363096 206.98243773256763 H 0.0 **** 0.06
10296 C 157.09099691076594 110.4268442563957 16.255377483716757 C 0.0 **** -0.24
10297 H 157.89379249557527 110.23723591248242 16.967942915626182 H 0.0 **** 0.06
10298 H 157.41904029323007 110.14207911845583 15.25506306491306 H 0.0 **** 0.06
10299 H 156.83884255096092 111.48762402259516 16.26758584542287 H 0.0 **** 0.06
10300 H 156.21408355852313 109.84133120771457 16.531172714329173 H 0.0 **** 0.06
10301 C 36.912837318329395 90.4195170881797 39.33281968199704 C 0.0 **** -0.24
10302 H 36.91031446592686 90.21786166802787 40.403685821717886 H 0.0 **** 0.06
10303 H 37.94007994389992 90.41831969245155 38.96574510957693 H 0.0 **** 0.06
10304 H 36.46019023671289 91.39298356175053 39.14540781209443 H 0.0 **** 0.06
10305 H 36.34234961188494 89.64721782016224 38.81724409806246 H 0.0 **** 0.06
10306 C 151.52311442993528 196.10059131251762 38.89082538620801 C 0.0 **** -0.24
10307 H 151.29957999995017 197.16355696940965 38.98294998850102 H 0.0 **** 0.06
10308 H 150.82776920865814 195.52890927479933 39.50478648593527 H 0.0 **** 0.06
10309 H 152.54279105369335 195.91323937944736 39.22574835435911 H 0.0 **** 0.06
10310 H 151.42129355649615 195.79761021707014 37.84879298097543 H 0.0 **** 0.06
10311 C 235.5071762671626 84.51503885258722 105.53889913634276 C 0.0 **** -0.24
10312 H 234.51807020980573 84.95828032452857 105.6515346895572 H 0.0 **** 0.06
10313 H 235.4114668835728 83.51620023246244 105.11309320126034 H 0.0 **** 0.06
10314 H 235.9884128489101 84.44942473253528 106.5148083075988 H 0.0 **** 0.06
10315 H 236.11070195057795 85.13711547693285 104.87727764307195 H 0.0 **** 0.06
10316 C 42.929111862024996 121.57896603299957 163.05876168537273 C 0.0 **** -0.24
10317 H 42.44671213807048 120.8915725460557 162.3638449495383 H 0.0 **** 0.06
10318 H 43.25693754956515 121.03077655815301 163.94262830314457 H 0.0 **** 0.06
10319 H 42.22125471197674 122.35400774622119 163.35327513279782 H 0.0 **** 0.06
10320 H 43.79110705502353 122.03816500227694 162.57538899528657 H 0.0 **** 0.06
10321 C 153.63235479903497 148.06775412705483 71.56199286232405 C 0.0 **** -0.24
10322 H 154.30107728884434 148.67404578481614 70.95061881083313 H 0.0 **** 0.06
10323 H 154.02963902232358 147.9985910733897 72.57503841636068 H 0.0 **** 0.06
10324 H 153.55361280238034 147.06904581511247 71.13302436686433 H 0.0 **** 0.06
10325 H 152.64640316143775 148.53113052893735 71.58907130736662 H 0.0 **** 0.06
10326 C 61.75590018605354 118.7594854071132 123.82320652633129 C 0.0 **** -0.24
10327 H 61.01032230594774 119.437025805758 124.24137421828769 H 0.0 **** 0.06
10328 H 62.29076694372384 119.26123561099288 123.01679543153466 H 0.0 **** 0.06
10329 H 61.260054633004415 117.86962626958078 123.43348292366792 H 0.0 **** 0.06
10330 H 62.46049368024862 118.47016539143146 124.60263420178424 H 0.0 **** 0.06
10331 C 146.87811306919085 166.55494639477095 169.64499213059807 C 0.0 **** -0.24
10332 H 147.1257390478557 165.84783559806203 170.43718672326648 H 0.0 **** 0.06
10333 H 146.45857968265412 167.46024628162647 170.08575106522866 H 0.0 **** 0.06
10334 H 146.14837914062613 166.1048415611274 168.97284066737492 H 0.0 **** 0.06
10335 H 147.78055583253237 166.8064786405439 169.08738549317997 H 0.0 **** 0.06
10336 C 49.08543885427363 3.6782675974253323 156.83631632230507 C 0.0 **** -0.24
10337 H 48.83495424943342 3.4328838550749907 155.804532989802 H 0.0 **** 0.06
10338 H 48.44547928406587 4.489923623094896 157.18324544950815 H 0.0 **** 0.06
10339 H 50.12866073580744 3.98831522583275 156.89236217851152 H 0.0 **** 0.06
10340 H 48.93411907922416 2.801021495735327 157.46525365702414 H 0.0 **** 0.06
10341 C 241.65209834903175 165.4240863016287 96.68457504030411 C 0.0 **** -0.24
10342 H 242.62802871065736 165.90961353434753 96.66571214586835 H 0.0 **** 0.06
10343 H 241.53982702641298 164.8010413383868 95.79661800069195 H 0.0 **** 0.06
10344 H 240.86962481327396 166.18198405258326 96.69794372828923 H 0.0 **** 0.06
10345 H 241.57304522588078 164.80329150524588 97.57689448494759 H 0.0 **** 0.06
10346 C 121.15365358270694 149.038336993744 0.3291304848702765 C 0.0 **** -0.24
10347 H 121.80464547718415 149.29712738366976 1.1639080910196213 H 0.0 **** 0.06
10348 H 120.22496626049835 149.60346095202664 0.4049020704319872 H 0.0 **** 0.06
10349 H 120.93370664975905 147.97107233807097 0.3564630885160227 H 0.0 **** 0.06
10350 H 121.65324391215839 149.28275505658914 -0.609006975888164 H 0.0 **** 0.06
10351 C 130.9527401311525 46.47020892208741 222.33930820378475 C 0.0 **** -0.24
10352 H 131.09794920715214 47.464948047292935 221.91745992487444 H 0.0 **** 0.06
10353 H 129.9191752134808 46.36314420036712 222.66859573138447 H 0.0 **** 0.06
10354 H 131.6211695086663 46.33612478891618 223.18990104606257 H 0.0 **** 0.06
10355 H 131.17315164960215 45.7189278203259 221.5819337763755 H 0.0 **** 0.06
10356 C 243.42555395884483 22.3728326726293 41.37416801540823 C 0.0 **** -0.24
10357 H 243.74223780444268 21.336588305162394 41.49556624008025 H 0.0 **** 0.06
10358 H 243.3214987893748 22.599567765026023 40.31259310090431 H 0.0 **** 0.06
10359 H 244.17212156730756 23.03381899502611 41.81594224460653 H 0.0 **** 0.06
10360 H 242.4680741863119 22.52039188382801 41.87363105956675 H 0.0 **** 0.06
10361 C 32.32499453323314 218.773724321802 22.668002412369006 C 0.0 **** -0.24
10362 H 33.4140204787673 218.7619195195323 22.71264214487455 H 0.0 **** 0.06
10363 H 32.004200838670585 219.15459623070382 21.698258855421955 H 0.0 **** 0.06
10364 H 31.936070906227968 219.4157667935492 23.45851455565206 H 0.0 **** 0.06
10365 H 31.945156536339567 217.76085201736726 22.803863979288266 H 0.0 **** 0.06
10366 C 223.80754315303656 235.54740632684428 195.35516857451358 C 0.0 **** -0.24
10367 H 224.84079503130616 235.59478650181967 195.01100546482178 H 0.0 **** 0.06
10368 H 223.70271944385857 236.13424506744855 196.2686804073868 H 0.0 **** 0.06
10369 H 223.54016426061287 234.51060976581144 195.55637984780492 H 0.0 **** 0.06
10370 H 223.14926353313268 235.95031267766603 194.58571358565527 H 0.0 **** 0.06
10371 C 97.88706165974139 231.43101576635794 168.56463056258502 C 0.0 **** -0.24
10372 H 97.18991986447347 231.6553434918485 167.75670731911643 H 0.0 **** 0.06
10373 H 97.33619090295818 231.0379038495867 169.4200620416601 H 0.0 **** 0.06
10374 H 98.41062368295911 232.34087478403305 168.85508697506268 H 0.0 **** 0.06
10375 H 98.6085659415545 230.68773035561304 168.2248130489192 H 0.0 **** 0.06
10376 C 219.23056580435542 52.547263376045265 126.97319495557815 C 0.0 **** -0.24
10377 H 219.41292673592906 52.28585382193175 128.01609193785043 H 0.0 **** 0.06
10378 H 219.99457402473735 52.088257834821135 126.34505569581603 H 0.0 **** 0.06
10379 H 219.2675678452188 53.63112411325369 126.85960653472895 H 0.0 **** 0.06
10380 H 218.24701087349968 52.18406514927405 126.67483725559632 H 0.0 **** 0.06
10381 C 25.791398960240684 25.88693064673464 247.9193072683442 C 0.0 **** -0.24
10382 H 25.66078846286794 25.001547727028665 248.54289412618454 H 0.0 **** 0.06
10383 H 24.896018529328927 26.040436654982486 247.31600024070832 H 0.0 **** 0.06
10384 H 26.650961247422146 25.746423665584217 247.2641034606592 H 0.0 **** 0.06
10385 H 25.955901984757617 26.75663603974708 248.55388810184638 H 0.0 **** 0.06
10386 C 89.81964903467059 146.2488219117974 216.5622252291403 C 0.0 **** -0.24
10387 H 90.75597840960495 146.15769427898792 217.11281094072564 H 0.0 **** 0.06
10388 H 89.43937792966386 145.25417686811068 216.3250423607566 H 0.0 **** 0.06
10389 H 89.99331467612595 146.8016029380327 215.63882772326286 H 0.0 **** 0.06
10390 H 89.09034578281825 146.7811289072713 217.17338364129807 H 0.0 **** 0.06
10391 C 63.912061619493215 49.673832946248666 88.05457624107086 C 0.0 **** -0.24
10392 H 63.08334292948524 49.34697531901952 87.42604859743719 H 0.0 **** 0.06
10393 H 63.95535754662211 49.05268071189104 88.9495918498055 H 0.0 **** 0.06
10394 H 63.7614026843074 50.715070283562426 88.34063264725486 H 0.0 **** 0.06
10395 H 64.84620717102192 49.58069786773606 87.50091703884257 H 0.0 **** 0.06
10396 C 75.97162361935986 60.56449876956128 67.39135005273417 C 0.0 **** -0.24
10397 H 76.3154615373299 60.41042905743626 68.41385803461381 H 0.0 **** 0.06
10398 H 76.81638620781328 60.85037762237397 66.76383907304509 H 0.0 **** 0.06
10399 H 75.22252253078227 61.35580536143115 67.37541265495801 H 0.0 **** 0.06
10400 H 75.53291502433504 59.64152946918742 67.01288472655327 H 0.0 **** 0.06
10401 C 65.13497011835139 203.03277430015413 147.23965374096122 C 0.0 **** -0.24
10402 H 65.8822632037452 202.60394440249004 146.57197752246364 H 0.0 **** 0.06
10403 H 64.99627231701717 204.08720324237655 146.99918731430728 H 0.0 **** 0.06
10404 H 65.47295684936176 202.93690688678058 148.27175401862903 H 0.0 **** 0.06
10405 H 64.19115933973146 202.5035111798108 147.11537858044767 H 0.0 **** 0.06
10406 C 134.4912248114382 26.526841452001136 146.34414766355826 C 0.0 **** -0.24
10407 H 134.2505656269466 26.698606964262922 145.29409511556614 H 0.0 **** 0.06
10408 H 135.49509853545916 26.89718169019001 146.55087264714984 H 0.0 **** 0.06
10409 H 134.44584923693293 25.458918054290663 146.55665940159912 H 0.0 **** 0.06
10410 H 133.77245905088418 27.05344474273197 146.97142457049142 H 0.0 **** 0.06
10411 C 88.7956087908338 107.34467166856396 125.99710861087752 C 0.0 **** -0.24
10412 H 89.37367051843663 106.64000460395417 126.59438704666755 H 0.0 **** 0.06
10413 H 89.33073397162508 107.56280047639126 125.07193865328762 H 0.0 **** 0.06
10414 H 88.6536470691511 108.2672581395606 126.56009408476692 H 0.0 **** 0.06
10415 H 87.82401900953263 106.9095533444625 125.7610134621847 H 0.0 **** 0.06
10416 C 36.474762641483125 118.2496614239013 185.38876772025105 C 0.0 **** -0.24
10417 H 36.584748560534806 119.2240523927922 184.9122890628841 H 0.0 **** 0.06
10418 H 37.10478817359022 118.20712150382121 186.27675349995002 H 0.0 **** 0.06
10419 H 36.77606143204669 117.46827340220594 184.69126333671403 H 0.0 **** 0.06
10420 H 35.432828103715295 118.1012275582174 185.67406297930535 H 0.0 **** 0.06
10421 C 182.07702499743124 0.14850099760292323 238.15970427356484 C 0.0 **** -0.24
10422 H 183.10095608363676 0.020122391740329704 237.80838442550672 H 0.0 **** 0.06
10423 H 181.4494649464606 0.4865785843701076 237.3347257873039 H 0.0 **** 0.06
10424 H 182.05801334626346 0.8898843229162168 238.9586328642534 H 0.0 **** 0.06
10425 H 181.70091549471866 -0.8026313868394226 238.5364142382578 H 0.0 **** 0.06
10426 C 115.10278916706562 235.83885462773384 206.49832286184312 C 0.0 **** -0.24
10427 H 115.2169217049763 236.39510411174632 207.42859478008904 H 0.0 **** 0.06
10428 H 115.20809811130184 236.5182448816111 205.65334033884426 H 0.0 **** 0.06
10429 H 114.11689103494922 235.37485127477936 206.47235501085038 H 0.0 **** 0.06
10430 H 115.86943574612764 235.06603980598248 206.4411403061431 H 0.0 **** 0.06
10431 C 23.5875419968431 140.8117164464072 7.752225852684688 C 0.0 **** -0.24
10432 H 24.121878906597118 141.7060214809444 8.071780440214383 H 0.0 **** 0.06
10433 H 24.23212386452255 140.21385727071146 7.1072303495145945 H 0.0 **** 0.06
10434 H 22.69125898852414 141.10054578280247 7.204074464970319 H 0.0 **** 0.06
10435 H 23.304384601587145 140.22516037301563 8.626860886365677 H 0.0 **** 0.06
10436 C 33.90921438226103 246.95404686099755 202.01331087755662 C 0.0 **** -0.24
10437 H 34.60717700582835 247.5780160054682 201.45456920420185 H 0.0 **** 0.06
10438 H 34.46662544216018 246.23742285256577 202.6168235233353 H 0.0 **** 0.06
10439 H 33.2634090766892 246.4197574653935 201.31669339629298 H 0.0 **** 0.06
10440 H 33.30093291571204 247.5825186869247 202.66415217553026 H 0.0 **** 0.06
10441 C 144.85727176354538 152.61416329537332 129.6948674836132 C 0.0 **** -0.24
10442 H 145.14509378497584 152.6095450448243 128.64404318099176 H 0.0 **** 0.06
10443 H 145.74998175246506 152.6919047461871 130.31573761092628 H 0.0 **** 0.06
10444 H 144.3302130068567 151.69003238473638 129.93129864107843 H 0.0 **** 0.06
10445 H 144.20377622079783 153.46439484506382 129.88902065027239 H 0.0 **** 0.06
10446 C 95.76156583271651 192.11162972699117 237.80365695181854 C 0.0 **** -0.24
10447 H 95.80292902375976 192.89338764050584 238.56180483691608 H 0.0 **** 0.06
10448 H 95.99345359582293 192.53882491485777 236.828281690094 H 0.0 **** 0.06
10449 H 94.76268404516128 191.67737458512198 237.78308507088266 H 0.0 **** 0.06
10450 H 96.49016661558255 191.33621290137054 238.0430880024354 H 0.0 **** 0.06
10451 C 174.82386210644455 24.352279127084017 106.05099833464615 C 0.0 **** -0.24
10452 H 174.58454716987598 24.372748669676724 107.1138877557116 H 0.0 **** 0.06
10453 H 175.7709334686258 23.833806271583597 105.90202081742146 H 0.0 **** 0.06
10454 H 174.90419907047612 25.372570769664605 105.67766136494154 H 0.0 **** 0.06
10455 H 174.03417135188874 23.82813562427029 105.51184002885117 H 0.0 **** 0.06
10456 C 106.47305261425313 87.11289398145487 73.56184626256467 C 0.0 **** -0.24
10457 H 106.60304017207895 86.20413063187809 72.97562705291975 H 0.0 **** 0.06
10458 H 106.5015259055649 86.86769775215166 74.62390353861545 H 0.0 **** 0.06
10459 H 105.5116638890178 87.56736415185597 73.31917329779523 H 0.0 **** 0.06
10460 H 107.27477744417743 87.81395880934537 73.32894719200411 H 0.0 **** 0.06
10461 C 248.7574064634115 189.92656778898615 118.71054993043887 C 0.0 **** -0.24
10462 H 247.75592121018883 189.7579171009009 119.10603039682601 H 0.0 **** 0.06
10463 H 248.98058371071397 190.9945406917006 118.73186637836798 H 0.0 **** 0.06
10464 H 248.8086836862579 189.564601045603 117.68448303389366 H 0.0 **** 0.06
10465 H 249.48395053366966 189.39199290338917 119.32282517798419 H 0.0 **** 0.06
10466 C 112.72686350210131 142.85605530971023 177.0762807538231 C 0.0 **** -0.24
10467 H 113.61190380263332 142.22463800984028 177.15342624809782 H 0.0 **** 0.06
10468 H 112.9160203354833 143.66172075752704 176.36671014407838 H 0.0 **** 0.06
10469 H 112.49498520733815 143.2790933769988 178.05364599661667 H 0.0 **** 0.06
10470 H 111.88346046719818 142.25741016714838 176.72993425358342 H 0.0 **** 0.06
10471 C 71.84556950547372 208.14588251973845 64.04672488671892 C 0.0 **** -0.24
10472 H 71.27295132575424 207.77128617930327 64.89489383580383 H 0.0 **** 0.06
10473 H 72.72697851376222 207.52221768040408 63.89969804886513 H 0.0 **** 0.06
10474 H 72.15543527732567 209.17270401666266 64.24420500814381 H 0.0 **** 0.06
10475 H 71.22701733858995 208.1191907073116 63.150447408070505 H 0.0 **** 0.06
10476 C 69.2294379161956 32.79043547555882 199.4428631150083 C 0.0 **** -0.24
10477 H 68.14004197815194 32.762081830623245 199.46788572733274 H 0.0 **** 0.06
10478 H 69.62612834571402 32.27825288635074 200.31994365628603 H 0.0 **** 0.06
10479 H 69.56514453887564 33.82759113145056 199.4445306964669 H 0.0 **** 0.06
10480 H 69.58432631363638 32.29455325044418 198.53904310007445 H 0.0 **** 0.06
10481 C 159.23706361357907 76.97887924651411 190.68683232519362 C 0.0 **** -0.24
10482 H 160.1895830176263 76.51585524769052 190.94295753386166 H 0.0 **** 0.06
10483 H 158.77362046010978 77.38001710162393 191.58880208346457 H 0.0 **** 0.06
10484 H 158.57961693239457 76.23243347125486 190.24095887207073 H 0.0 **** 0.06
10485 H 159.40564701366995 77.786234106004 189.97461372726573 H 0.0 **** 0.06
10486 C 9.333978230975148 12.899437679331243 173.34375675395543 C 0.0 **** -0.24
10487 H 9.72347593787066 13.48019197302807 172.50873727058493 H 0.0 **** 0.06
10488 H 8.247952225071444 12.83857185576153 173.26870715858166 H 0.0 **** 0.06
10489 H 9.607186746226603 13.383591076486738 174.28128230736053 H 0.0 **** 0.06
10490 H 9.756372321020933 11.894462399506253 173.3168216732478 H 0.0 **** 0.06
10491 C 204.66070463274238 228.10013701193142 95.13312937004022 C 0.0 **** -0.24
10492 H 204.10874353258174 227.3631222027886 94.55070883986505 H 0.0 **** 0.06
10493 H 204.0422195899809 228.44509664006142 95.96238788611876 H 0.0 **** 0.06
10494 H 204.91960371657996 228.94754069718738 94.49626921814556 H 0.0 **** 0.06
10495 H 205.57283602837094 227.6470309815225 95.52235786082619 H 0.0 **** 0.06
10496 C 239.09059283600442 49.057244758938 156.3026922795514 C 0.0 **** -0.24
10497 H 238.01532743396143 48.939094252309474 156.1654685549089 H 0.0 **** 0.06
10498 H 239.6045092414044 48.17832437349736 155.91241870707222 H 0.0 **** 0.06
10499 H 239.31011001503634 49.16535860071633 157.36443950249614 H 0.0 **** 0.06
10500 H 239.42978201174213 49.94479026163296 155.7685974825465 H 0.0 **** 0.06
10501 C 172.64525155091022 40.12018931399177 248.54910012532451 C 0.0 **** -0.24
10502 H 173.0509589998915 39.567442338104286 249.39598843448354 H 0.0 **** 0.06
10503 H 171.70006034195367 39.670368316950146 248.24112570715477 H 0.0 **** 0.06
10504 H 173.35195957591492 40.08555447004481 247.72042783995207 H 0.0 **** 0.06
10505 H 172.476687738857 41.1576736496601 248.8392140199407 H 0.0 **** 0.06
10506 C 17.470517303130194 82.20999071121577 181.76444260412802 C 0.0 **** -0.24
10507 H 17.68786181233955 81.14923142841297 181.88014763968167 H 0.0 **** 0.06
10508 H 16.67785331436025 82.4959010204748 182.4557895967675 H 0.0 **** 0.06
10509 H 17.14779878760754 82.40536395869134 180.7415591171705 H 0.0 **** 0.06
10510 H 18.36794757427731 82.79084440124731 181.97862120608664 H 0.0 **** 0.06
10511 C 1.1769263747048058 69.010184488119 223.79945990857266 C 0.0 **** -0.24
10512 H 1.8271286540697815 69.77855729634038 223.38194130239873 H 0.0 **** 0.06
10513 H 0.8185424053959025 68.36401170493352 222.99905050110533 H 0.0 **** 0.06
10514 H 0.32837898470782534 69.48234197253416 224.29384356411094 H 0.0 **** 0.06
10515 H 1.7361396565930818 68.41692846977602 224.52378882765066 H 0.0 **** 0.06
10516 C 207.44097130829832 125.55348273584141 141.1463923721952 C 0.0 **** -0.24
10517 H 206.82583882221937 125.96929023835807 141.94552235655632 H 0.0 **** 0.06
10518 H 208.38284504424695 125.19573607260602 141.5621720714947 H 0.0 **** 0.06
10519 H 207.64035823818975 126.3250173234745 140.40382063486877 H 0.0 **** 0.06
10520 H 206.91190133612324 124.7238276096094 140.6761382732577 H 0.0 **** 0.06
10521 C 170.1269894671351 151.9928698441974 178.51751689859086 C 0.0 **** -0.24
10522 H 171.1398881778529 152.06638513727603 178.91438120793626 H 0.0 **** 0.06
10523 H 169.5958954060459 152.9273416650783 178.70311350227203 H 0.0 **** 0.06
10524 H 169.60337662403268 151.17365986926924 179.01013964990207 H 0.0 **** 0.06
10525 H 170.16930129509348 151.80506420345807 177.44540015871277 H 0.0 **** 0.06
10526 C 23.8577171752911 153.61649086026688 138.16833327691302 C 0.0 **** -0.24
10527 H 23.943152510215526 153.92751764004976 137.12726473329963 H 0.0 **** 0.06
10528 H 24.710951183463536 152.99092558212294 138.4310600964294 H 0.0 **** 0.06
10529 H 22.936278059922813 153.05143203793645 138.30408319422236 H 0.0 **** 0.06
10530 H 23.84218688981636 154.49752478570403 138.80990213621294 H 0.0 **** 0.06
10531 C 154.1332058827036 128.7965820004658 173.7539862881564 C 0.0 **** -0.24
10532 H 153.63816654020894 128.84270545622311 172.78443936479528 H 0.0 **** 0.06
10533 H 153.7530466529696 129.59307393089958 174.3943035078838 H 0.0 **** 0.06
10534 H 155.20771021827466 128.9210526971119 173.6191046772458 H 0.0 **** 0.06
10535 H 153.93383216381105 127.831160760237 174.2176246224205 H 0.0 **** 0.06
10536 C 99.90706575706957 150.1034316300036 82.5491642219188 C 0.0 **** -0.24
10537 H 99.55552326656098 150.36695448177127 83.5465719372207 H 0.0 **** 0.06
10538 H 100.8689838564012 149.59687633601246 82.62563558753254 H 0.0 **** 0.06
10539 H 100.01952342087861 151.0092679820925 81.95299700460666 H 0.0 **** 0.06
10540 H 99.18387645696038 149.4421354927863 82.07222688739114 H 0.0 **** 0.06
10541 C 69.98725107572554 182.96627800303133 70.91183588445804 C 0.0 **** -0.24
10542 H 69.33978175508898 182.13079436565107 70.64834181300387 H 0.0 **** 0.06
10543 H 70.057236254034 183.6521851056768 70.0671240411526 H 0.0 **** 0.06
10544 H 70.98099641390615 182.59267084699732 71.15915039384322 H 0.0 **** 0.06
10545 H 69.57186330733563 183.49054813071717 71.77296561475379 H 0.0 **** 0.06
10546 C 222.3154268605796 234.94671371784108 189.36926927703374 C 0.0 **** -0.24
10547 H 221.93917711653557 235.95593234989138 189.20495116485606 H 0.0 **** 0.06
10548 H 222.14647569395274 234.34549802294333 188.47551272886014 H 0.0 **** 0.06
10549 H 221.7939259498064 234.49719791484597 190.21404966735687 H 0.0 **** 0.06
10550 H 223.38408275775188 234.98753356776683 189.58172607128577 H 0.0 **** 0.06
10551 C 110.67355682286902 30.82357822641525 50.4449423292545 C 0.0 **** -0.24
10552 H 110.49735275558913 29.77039953415141 50.226298012461626 H 0.0 **** 0.06
10553 H 109.79642858155239 31.405031209814226 50.1602265949696 H 0.0 **** 0.06
10554 H 111.5396842298843 31.171387535701413 49.882724791452745 H 0.0 **** 0.06
10555 H 110.86027479091979 30.945832552631657 51.51193429310658 H 0.0 **** 0.06
10556 C 232.63960195050095 169.63928866641191 24.52816420152456 C 0.0 **** -0.24
10557 H 232.5691639985335 170.6093516604782 25.02108697421332 H 0.0 **** 0.06
10558 H 231.7517762668214 169.4777982845272 23.916858238772733 H 0.0 **** 0.06
10559 H 232.71161004337367 168.85457998707676 25.280560162416208 H 0.0 **** 0.06
10560 H 233.5261389479 169.61785637393245 23.894062173509298 H 0.0 **** 0.06
10561 C 224.77234262832036 168.5782011028916 137.79250582093377 C 0.0 **** -0.24
10562 H 225.29681284554357 169.45514159487035 137.41387284886525 H 0.0 **** 0.06
10563 H 224.38770676921678 168.78802639800458 138.79149990928903 H 0.0 **** 0.06
10564 H 225.46032346924812 167.7343411174316 137.83749748764245 H 0.0 **** 0.06
10565 H 223.9433130195908 168.3351835923097 137.12786910337476 H 0.0 **** 0.06
10566 C 181.7971597932323 228.54491410688203 89.11434904427753 C 0.0 **** -0.24
10567 H 181.54469898762483 228.03774730837435 88.18399968322171 H 0.0 **** 0.06
10568 H 181.03691617366883 228.32820844592584 89.86477949690655 H 0.0 **** 0.06
10569 H 181.84112708753133 229.62071385426287 88.94158805454614 H 0.0 **** 0.06
10570 H 182.76750817265292 228.19463922044633 89.46866403428584 H 0.0 **** 0.06
10571 C 57.833579132102415 14.15644772641636 37.53795904884301 C 0.0 **** -0.24
10572 H 57.66360595298457 14.623371878834831 36.56837588449257 H 0.0 **** 0.06
10573 H 57.10887266392439 13.356338897107406 37.68767532130154 H 0.0 **** 0.06
10574 H 57.719650505100844 14.901856858529271 38.32554718398988 H 0.0 **** 0.06
10575 H 58.842187406399916 13.744223271193874 37.570237805588064 H 0.0 **** 0.06
10576 C 55.048447124975496 168.660246809286 136.8602203609291 C 0.0 **** -0.24
10577 H 54.33169027106561 167.8883773227105 136.5787124860559 H 0.0 **** 0.06
10578 H 56.03546414251795 168.3964483359402 136.48058851328486 H 0.0 **** 0.06
10579 H 55.08580326616371 168.7405317510772 137.94678348352113 H 0.0 **** 0.06
10580 H 54.73860939130651 169.61549032370985 136.43581962942898 H 0.0 **** 0.06
10581 C 14.892816535806418 108.3722621372857 211.91502628587426 C 0.0 **** -0.24
10582 H 14.041190357324666 108.10076666481842 211.29159896445668 H 0.0 **** 0.06
10583 H 14.787985000267867 107.90828084514163 212.89614620014092 H 0.0 **** 0.06
10584 H 14.928847934604875 109.45578105116019 212.02758324675477 H 0.0 **** 0.06
10585 H 15.81244101182918 108.02481499467615 211.4448317841081 H 0.0 **** 0.06
10586 C 22.89612351397801 103.79114018385323 184.83352757345938 C 0.0 **** -0.24
10587 H 23.143246742000585 103.3912869179288 185.8175316668465 H 0.0 **** 0.06
10588 H 21.890616415881922 103.47438447997504 184.5556105466368 H 0.0 **** 0.06
10589 H 23.611118474130848 103.41769350302187 184.10037250561825 H 0.0 **** 0.06
10590 H 22.940342427969483 104.87908611770487 184.86280018030524 H 0.0 **** 0.06
10591 C 117.59220220768947 165.8435180849447 39.64017729955171 C 0.0 **** -0.24
10592 H 118.26193450622176 166.68847029494867 39.47507431304071 H 0.0 **** 0.06
10593 H 116.58167046299857 166.1158074131106 39.33667330081539 H 0.0 **** 0.06
10594 H 117.59672957518029 165.5781977940483 40.69770518184984 H 0.0 **** 0.06
10595 H 117.93141426172792 164.99131113339425 39.05012723676373 H 0.0 **** 0.06
10596 C 158.1490351228585 90.54480027180429 231.51786868034287 C 0.0 **** -0.24
10597 H 158.96587574475993 90.42308440505005 230.80666251272356 H 0.0 **** 0.06
10598 H 157.1976498177249 90.53074928543717 230.9846434416467 H 0.0 **** 0.06
10599 H 158.26038222946974 91.49691017800947 232.03810433037765 H 0.0 **** 0.06
10600 H 158.17210742456558 89.73063444705744 232.24157044102452 H 0.0 **** 0.06
10601 C 179.10980421647366 89.86772230625994 13.810715352246817 C 0.0 **** -0.24
10602 H 178.51395118879267 88.95601730107819 13.756000335432788 H 0.0 **** 0.06
10603 H 178.97282688065462 90.44592680584353 12.895377511509466 H 0.0 **** 0.06
10604 H 180.1621855185961 89.60671675752292 13.922116729803804 H 0.0 **** 0.06
10605 H 178.78868911535872 90.4607481113558 14.666653462613468 H 0.0 **** 0.06
10606 C 223.54179099734296 69.3998710417147 98.36668965639163 C 0.0 **** -0.24
10607 H 223.23715888417513 70.28536454840852 98.92487519710988 H 0.0 **** 0.06
10608 H 223.03790329352384 68.52312704425233 98.7737691520631 H 0.0 **** 0.06
10609 H 224.62104856260913 69.27099228671042 98.4513711065627 H 0.0 **** 0.06
10610 H 223.27148946811883 69.52045466826107 97.31751986847655 H 0.0 **** 0.06
10611 C 157.317418847517 97.1801581203317 230.9840261227651 C 0.0 **** -0.24
10612 H 156.84359974968635 97.65357322589605 230.12382488236588 H 0.0 **** 0.06
10613 H 156.7919744471381 97.47244280921362 231.8931941005708 H 0.0 **** 0.06
10614 H 158.35817290530935 97.49723818164452 231.04600022683366 H 0.0 **** 0.06
10615 H 157.27405194234296 96.09723307403667 230.87151738290189 H 0.0 **** 0.06
10616 C 53.24608615358798 220.41253028679736 218.10703914764701 C 0.0 **** -0.24
10617 H 52.68588226806466 221.2978166281451 218.40690789139035 H 0.0 **** 0.06
10618 H 52.70692195286378 219.89390644072552 217.31321809934605 H 0.0 **** 0.06
10619 H 53.360073547122255 219.7474152844791 218.9626620030092 H 0.0 **** 0.06
10620 H 54.22962584912179 220.70988013290332 217.74418752670476 H 0.0 **** 0.06
10621 C 154.2110635270681 35.60209372942978 129.2665490973868 C 0.0 **** -0.24
10622 H 153.99592874270664 34.630032567747534 129.7115869639562 H 0.0 **** 0.06
10623 H 155.20706718712972 35.58454714365985 128.82284490960396 H 0.0 **** 0.06
10624 H 154.168391179602 36.371744188134585 130.0364749380939 H 0.0 **** 0.06
10625 H 153.47237490031074 35.818449109795594 128.4944040094995 H 0.0 **** 0.06
10626 C 62.696981879622285 0.4113759628786795 201.5175303087925 C 0.0 **** -0.24
10627 H 63.31321404920172 0.8327607629203442 200.72237098704392 H 0.0 **** 0.06
10628 H 61.686035514118856 0.8133585143452251 201.44488011250033 H 0.0 **** 0.06
10629 H 63.12353357141433 0.6737160244713891 202.4855813990309 H 0.0 **** 0.06
10630 H 62.665253299863366 -0.6736706828358763 201.41604312701807 H 0.0 **** 0.06
10631 C 111.51006777562839 32.610678433083166 244.34398825731319 C 0.0 **** -0.24
10632 H 112.16740984337596 32.864724154078175 245.1751198594058 H 0.0 **** 0.06
10633 H 111.22267734397528 33.52062806114483 243.816864944677 H 0.0 **** 0.06
10634 H 110.61757896575554 32.11399853787415 244.72476427562378 H 0.0 **** 0.06
10635 H 112.0331187302699 31.943645757283406 243.65791705977787 H 0.0 **** 0.06
10636 C 31.300239575142825 201.87067088088847 74.489272339167 C 0.0 **** -0.24
10637 H 32.290173001938925 202.1309480915096 74.8645990739868 H 0.0 **** 0.06
10638 H 31.30031753232933 200.83261815205861 74.15784498923924 H 0.0 **** 0.06
10639 H 31.048159941750896 202.52020625053103 73.6510079230612 H 0.0 **** 0.06
10640 H 30.56556076426962 201.99930294883788 75.28312269620776 H 0.0 **** 0.06
10641 C 158.8788810995142 213.13783848452456 243.2561138159267 C 0.0 **** -0.24
10642 H 159.58623419956362 212.8980029896633 244.04982855931658 H 0.0 **** 0.06
10643 H 158.30588525677175 212.24711393339953 242.99832493344897 H 0.0 **** 0.06
10644 H 159.42304640083694 213.48757495312768 242.37930934068643 H 0.0 **** 0.06
10645 H 158.20037197072958 213.9194082403935 243.59819370323865 H 0.0 **** 0.06
10646 C 77.41017723951535 146.0190370212658 103.56929825715716 C 0.0 **** -0.24
10647 H 77.89938908697692 145.21615140700382 104.12058042216887 H 0.0 **** 0.06
10648 H 78.11217332951125 146.44945076123733 102.85601986925772 H 0.0 **** 0.06
10649 H 77.08094131166396 146.78935105536627 104.26645000447823 H 0.0 **** 0.06
10650 H 76.54805423339886 145.61980521635516 103.03588805081372 H 0.0 **** 0.06
10651 C 126.05026227530925 113.71265632938841 11.103104281766363 C 0.0 **** -0.24
10652 H 126.93745862040987 113.10033485336749 11.263034328100957 H 0.0 **** 0.06
10653 H 126.35167253923822 114.72677010762442 10.840794033321913 H 0.0 **** 0.06
10654 H 125.45468397648429 113.73338078601242 12.01533481632356 H 0.0 **** 0.06
10655 H 125.45815934927333 113.28774727984907 10.291698090397006 H 0.0 **** 0.06
10656 C 50.467942471981075 140.81282233683496 83.6484167970259 C 0.0 **** -0.24
10657 H 50.37078675566576 141.37137862832864 82.7170145138123 H 0.0 **** 0.06
10658 H 49.516016689434124 140.3388416328647 83.88820038262736 H 0.0 **** 0.06
10659 H 50.74733733068621 141.49373352493305 84.45293842148462 H 0.0 **** 0.06
10660 H 51.23639474631739 140.04883074261656 83.53600459672569 H 0.0 **** 0.06
10661 C 74.69174720743837 197.74821227382398 148.1562906142115 C 0.0 **** -0.24
10662 H 74.69522502185251 198.80654674480806 148.4149943265235 H 0.0 **** 0.06
10663 H 74.80570945178346 197.63766281530465 147.07738885585226 H 0.0 **** 0.06
10664 H 73.74795636496913 197.3012838186795 148.469715847297 H 0.0 **** 0.06
10665 H 75.5171620213743 197.24715558624365 148.6627737407938 H 0.0 **** 0.06
10666 C 129.43088934472962 82.28874197887805 200.29657339380162 C 0.0 **** -0.24
10667 H 128.67042377232733 82.2249012262345 201.07443844267925 H 0.0 **** 0.06
10668 H 130.25933930626482 82.90512975646598 200.64851423772976 H 0.0 **** 0.06
10669 H 128.99910423530216 82.73676319287583 199.40157552737014 H 0.0 **** 0.06
10670 H 129.79643115685784 81.28854417426587 200.06311866943417 H 0.0 **** 0.06
10671 C 176.53041737749354 181.7118072024175 84.7050704034713 C 0.0 **** -0.24
10672 H 176.62389394766055 180.6617452560676 84.98391914143352 H 0.0 **** 0.06
10673 H 176.41403400522904 181.79223223291592 83.62475180026388 H 0.0 **** 0.06
10674 H 177.42477781316353 182.25127004922126 85.01604116129462 H 0.0 **** 0.06
10675 H 175.6585296913891 182.14144766269388 85.19848960467877 H 0.0 **** 0.06
10676 C 107.6139577011038 165.60522570625386 71.7641014001911 C 0.0 **** -0.24
10677 H 107.16298348053678 165.8370594179685 72.7289557680721 H 0.0 **** 0.06
10678 H 106.83288378126386 165.3220565455713 71.05778041264881 H 0.0 **** 0.06
10679 H 108.31507992089001 164.779968126368 71.87979110762797 H 0.0 **** 0.06
10680 H 108.14191826055725 166.48143739213495 71.38963072743536 H 0.0 **** 0.06
10681 C 54.15946712060904 247.8709704832649 49.70424055242127 C 0.0 **** -0.24
10682 H 53.7972184174192 248.78336656894194 49.22929335508593 H 0.0 **** 0.06
10683 H 55.180928919562774 248.02431664475682 50.05327109995953 H 0.0 **** 0.06
10684 H 54.14069594893655 247.05338498978443 48.983145427225594 H 0.0 **** 0.06
10685 H 53.519141990245515 247.62380290714714 50.55134119077009 H 0.0 **** 0.06
10686 C 0.41845463312014886 180.07756151863563 110.16001722271815 C 0.0 **** -0.24
10687 H -0.6247998058414481 179.80399332018257 110.32048589217808 H 0.0 **** 0.06
10688 H 0.8133334399817471 180.54758052864935 111.05958512308732 H 0.0 **** 0.06
10689 H 0.48644111391632805 180.77529630095245 109.32503423703301 H 0.0 **** 0.06
10690 H 0.996818932741931 179.1818480792294 109.93221303863388 H 0.0 **** 0.06
10691 C 49.18754366941076 207.78372510899263 113.1659927100068 C 0.0 **** -0.24
10692 H 48.306066514247604 207.19271330359632 113.41742789773957 H 0.0 **** 0.06
10693 H 48.87743385528864 208.773805171045 112.8324571964884 H 0.0 **** 0.06
10694 H 49.74178656203681 207.2879346228504 112.36956307030201 H 0.0 **** 0.06
10695 H 49.823836811845624 207.87891585358636 114.04611959431344 H 0.0 **** 0.06
10696 C 73.84977022415637 22.190236380857684 180.5741593074237 C 0.0 **** -0.24
10697 H 73.36228475989773 23.13610020728028 180.33581476091308 H 0.0 **** 0.06
10698 H 74.78824218140417 22.386914459577838 181.09194370475421 H 0.0 **** 0.06
10699 H 74.05113176987467 21.64337849896377 179.65276603716478 H 0.0 **** 0.06
10700 H 73.19760221429206 21.596931169287686 181.21403692774248 H 0.0 **** 0.06
10701 C 18.89591374615037 224.5140780656317 20.27746176016109 C 0.0 **** -0.24
10702 H 18.63790069278599 225.55268426500749 20.48045678515294 H 0.0 **** 0.06
10703 H 18.87121653485275 223.94473060475505 21.20724189376699 H 0.0 **** 0.06
10704 H 19.896780916165255 224.4657054593083 19.84843662297382 H 0.0 **** 0.06
10705 H 18.178189504975137 224.092338498605 19.573421118031888 H 0.0 **** 0.06
10706 C 92.0387519923321 63.571720878022376 11.025325983437284 C 0.0 **** -0.24
10707 H 91.89891511712918 63.11525094240719 10.044974809582271 H 0.0 **** 0.06
10708 H 92.946541556391 64.17508597165849 11.019223454173954 H 0.0 **** 0.06
10709 H 92.1264956557888 62.78923651189169 11.779750164787828 H 0.0 **** 0.06
10710 H 91.18207523314476 64.20461007652247 11.256033065095465 H 0.0 **** 0.06
10711 C 138.50798875907415 234.97613038524423 117.71260275853473 C 0.0 **** -0.24
10712 H 137.92817478944443 234.05554088657124 117.77838500216336 H 0.0 **** 0.06
10713 H 138.23994791006461 235.6334106742293 118.54089094012946 H 0.0 **** 0.06
10714 H 138.2900017284651 235.47434438663865 116.76866736923111 H 0.0 **** 0.06
10715 H 139.5698247371253 234.74057783746974 117.76319818381606 H 0.0 **** 0.06
10716 C 107.06898472108244 91.92076718900765 148.17726769829687 C 0.0 **** -0.24
10717 H 107.4478763173071 91.0839630104312 147.58929617875566 H 0.0 **** 0.06
10718 H 106.15564973037073 91.61995432643724 148.6897795304124 H 0.0 **** 0.06
10719 H 106.85665798043732 92.76105557045409 147.51621220831024 H 0.0 **** 0.06
10720 H 107.81856028401202 92.216236726142 148.9121478299961 H 0.0 **** 0.06
10721 C 130.52864976909763 58.893570899097796 135.44687907061817 C 0.0 **** -0.24
10722 H 131.57727737156057 58.92491438020633 135.1507535761929 H 0.0 **** 0.06
10723 H 129.93198085421082 58.489340764218184 134.62924053702457 H 0.0 **** 0.06
10724 H 130.18777140542923 59.90145859531711 135.68281316762742 H 0.0 **** 0.06
10725 H 130.418871210346 58.25806546190745 136.3264557248771 H 0.0 **** 0.06
10726 C 118.8183423102713 81.9880063329139 54.27615186599198 C 0.0 **** -0.24
10727 H 118.03213382154141 81.25408255561635 54.450268667326924 H 0.0 **** 0.06
10728 H 118.55133568763213 82.61202957387306 53.42351593946603 H 0.0 **** 0.06
10729 H 119.75692819520862 81.47250787928371 54.070260002602424 H 0.0 **** 0.06
10730 H 118.93483476817335 82.61278850596099 55.16202844789896 H 0.0 **** 0.06
10731 C 185.8653857960954 152.8893737317822 184.53195372623895 C 0.0 **** -0.24
10732 H 184.79952682527235 152.77031239047642 184.72422075816007 H 0.0 **** 0.06
10733 H 186.0487795956366 153.87026716441412 184.09341027663294 H 0.0 **** 0.06
10734 H 186.19838342719547 152.1139558375401 183.84247186962432 H 0.0 **** 0.06
10735 H 186.4151287365606 152.8015623241855 185.46970499223255 H 0.0 **** 0.06
10736 C 205.83586556170445 122.0402724790527 148.0811295347675 C 0.0 **** -0.24
10737 H 205.98690234348197 122.97845586384773 148.6140126223366 H 0.0 **** 0.06
10738 H 204.85206418854182 121.63867069976408 148.323631981492 H 0.0 **** 0.06
10739 H 206.60335165286125 121.32590418267876 148.3796602864863 H 0.0 **** 0.06
10740 H 205.9017370168471 122.2168669702018 147.00768978183447 H 0.0 **** 0.06
10741 C 185.1527825525541 30.674358404756276 36.587920857779565 C 0.0 **** -0.24
10742 H 185.04054989418887 31.383527818424938 37.40836716771895 H 0.0 **** 0.06
10743 H 185.76262693915575 31.12170773257907 35.802750827671375 H 0.0 **** 0.06
10744 H 184.17072751302442 30.42260520969026 36.187443894586806 H 0.0 **** 0.06
10745 H 185.63875125964736 29.76950238322398 36.954754033283706 H 0.0 **** 0.06
10746 C 95.389022611028 198.16020504196092 171.65032680876664 C 0.0 **** -0.24
10747 H 94.8922884171366 197.3200435794546 172.13518289327737 H 0.0 **** 0.06
10748 H 94.88663986419544 199.0878083311302 171.92606634187675 H 0.0 **** 0.06
10749 H 95.34555654309946 198.03167662626146 170.56824375828822 H 0.0 **** 0.06
10750 H 96.42981534124854 198.20065126686748 171.9697202228044 H 0.0 **** 0.06
10751 C 95.62947640678541 214.92748571368395 173.18076445401135 C 0.0 **** -0.24
10752 H 95.63426786832449 214.43248570753212 174.1517014249768 H 0.0 **** 0.06
10753 H 94.90155301017691 215.7386375894106 173.18963747136152 H 0.0 **** 0.06
10754 H 95.36279786283646 214.20657365159147 172.40783112992085 H 0.0 **** 0.06
10755 H 96.62108247691188 215.33091401689944 172.97393219864702 H 0.0 **** 0.06
10756 C 216.0642342248303 119.24234771585805 238.91292049725357 C 0.0 **** -0.24
10757 H 215.9320359630868 120.07728675852002 238.2249139695056 H 0.0 **** 0.06
10758 H 216.73510759450514 118.50770179942609 238.46786222472022 H 0.0 **** 0.06
10759 H 215.09846849132222 118.77959284848549 239.1117446229315 H 0.0 **** 0.06
10760 H 216.49260506007212 119.60592165719791 239.8475134546212 H 0.0 **** 0.06
10761 C 105.6505165908712 58.55588406429962 184.87581297507455 C 0.0 **** -0.24
10762 H 104.95471262653223 59.39325385136175 184.82142314330224 H 0.0 **** 0.06
10763 H 106.45957132492168 58.80039105926235 185.56412419538282 H 0.0 **** 0.06
10764 H 106.06187956075428 58.359903449940845 183.88595204114057 H 0.0 **** 0.06
10765 H 105.12516521380456 57.66931601682376 185.231819439968 H 0.0 **** 0.06
10766 C 45.971316238954785 56.002466220560706 204.7180503398459 C 0.0 **** -0.24
10767 H 46.831213860273294 56.51603907694934 205.1484124825924 H 0.0 **** 0.06
10768 H 45.06023523846817 56.34661010525676 205.2092844824939 H 0.0 **** 0.06
10769 H 46.080016395155425 54.92782553954814 204.86502058657956 H 0.0 **** 0.06
10770 H 45.915053595744794 56.22020246440579 203.65227081472813 H 0.0 **** 0.06
10771 C 202.99854882572197 239.68346791268175 227.84115879920287 C 0.0 **** -0.24
10772 H 203.8876605762077 239.2852996723073 227.3522846680592 H 0.0 **** 0.06
10773 H 203.15319648825752 240.73701289571522 228.0753801568664 H 0.0 **** 0.06
10774 H 202.81289173869368 239.12992716189356 228.76233721046987 H 0.0 **** 0.06
10775 H 202.141419634343 239.58041982424078 227.17624060647427 H 0.0 **** 0.06
10776 C 222.84395665632783 35.04107204008332 24.676616658090268 C 0.0 **** -0.24
10777 H 223.7017812507915 35.13631445159953 24.010044510132204 H 0.0 **** 0.06
10778 H 222.44325523217793 36.03129840486005 24.896534137134182 H 0.0 **** 0.06
10779 H 223.15709875418682 34.56132711581503 25.604763423693456 H 0.0 **** 0.06
10780 H 222.07638907716506 34.436020891513095 24.1962515182351 H 0.0 **** 0.06
10781 C 106.39569784241286 18.69655460706943 75.72945903551121 C 0.0 **** -0.24
10782 H 105.51722733304311 18.379421362066267 75.16659790893189 H 0.0 **** 0.06
10783 H 106.23526932738372 18.506371597139022 76.79102094625611 H 0.0 **** 0.06
10784 H 106.56324272509264 19.762324083011976 75.57155807620617 H 0.0 **** 0.06
10785 H 107.2666568332464 18.137054801896326 75.38779403041485 H 0.0 **** 0.06
10786 C 213.97614910596218 54.82387170975019 125.9471302896863 C 0.0 **** -0.24
10787 H 214.5780463070294 54.80067735660171 126.85496856798028 H 0.0 **** 0.06
10788 H 212.91918114157983 54.83498866617467 126.212655621322 H 0.0 **** 0.06
10789 H 214.1910918093352 53.940060295160066 125.34563582034008 H 0.0 **** 0.06
10790 H 214.21688927067635 55.719700366059016 125.374472657593 H 0.0 **** 0.06
10791 C 9.810849429746881 21.742587543518056 179.86574893491553 C 0.0 **** -0.24
10792 H 10.471462447676657 22.608074702505263 179.90245008992412 H 0.0 **** 0.06
10793 H 9.997414169908836 21.182077697597578 178.94943245880916 H 0.0 **** 0.06
10794 H 8.773882095948167 22.075897520336497 179.88323502678116 H 0.0 **** 0.06
10795 H 10.00211985653499 21.102988249095944 180.72758531073617 H 0.0 **** 0.06
10796 C 76.5558018461945 68.62058702802798 8.872952444595299 C 0.0 **** -0.24
10797 H 76.95865749402483 69.62855286092821 8.97183507911815 H 0.0 **** 0.06
10798 H 75.67745609240993 68.6430388197443 8.227207733838668 H 0.0 **** 0.06
10799 H 76.27668577217611 68.24280382278994 9.85600871238006 H 0.0 **** 0.06
10800 H 77.31287892465124 67.9693900666035 8.435076443773454 H 0.0 **** 0.06
10801 C 119.7346506848165 217.028008870397 11.951600998623846 C 0.0 **** -0.24
10802 H 119.90453369497848 217.86433439611784 12.629534583065691 H 0.0 **** 0.06
10803 H 120.68903892777675 216.56605297459222 11.698104637398714 H 0.0 **** 0.06
10804 H 119.25230561969809 217.3884374997877 11.042480533722625 H 0.0 **** 0.06
10805 H 119.0922027520966 216.29193369842994 12.435972317266064 H 0.0 **** 0.06
10806 C 188.44136383988945 224.92756498032446 6.277615521872775 C 0.0 **** -0.24
10807 H 189.48281117672403 224.84042744321945 5.967576708993278 H 0.0 **** 0.06
10808 H 188.10356357807103 223.97657684063932 6.688729988299116 H 0.0 **** 0.06
10809 H 187.8273785182049 225.18980242851677 5.4156839003819925 H 0.0 **** 0.06
10810 H 188.35145859830766 225.70394339436672 7.037167476328676 H 0.0 **** 0.06
10811 C 143.86429712465903 45.687338455431785 224.46237308285077 C 0.0 **** -0.24
10812 H 142.85965471769074 45.492042029578016 224.08724309221293 H 0.0 **** 0.06
10813 H 144.52452752817442 44.868375812643706 224.17832455687466 H 0.0 **** 0.06
10814 H 143.83575689497627 45.772509261916355 225.54909244270107 H 0.0 **** 0.06
10815 H 144.23690039370783 46.61913880806138 224.03606628863045 H 0.0 **** 0.06
10816 C 206.35259491037533 89.12663928019083 115.15998261149 C 0.0 **** -0.24
10817 H 205.61450018901638 88.42753907623668 115.55345517540397 H 0.0 **** 0.06
10818 H 207.10586351197364 88.57809850988534 114.59257268272177 H 0.0 **** 0.06
10819 H 206.83109803863172 89.65176801351893 115.98628772034641 H 0.0 **** 0.06
10820 H 205.85930179144208 89.84676633101623 114.50721044767289 H 0.0 **** 0.06
10821 C 53.47519374234032 107.14909994759711 221.09355566621883 C 0.0 **** -0.24
10822 H 52.6779926254559 106.46302511675506 221.38070071737837 H 0.0 **** 0.06
10823 H 53.039735582813634 108.08689329448313 220.74815821169864 H 0.0 **** 0.06
10824 H 54.06543166837196 106.7045377005542 220.29176755467842 H 0.0 **** 0.06
10825 H 54.11586303421552 107.34023936606681 221.95343596805722 H 0.0 **** 0.06
10826 C 81.01643327303557 163.09263383889157 80.15614052297707 C 0.0 **** -0.24
10827 H 80.64850547749691 162.31367126522687 80.82265608809254 H 0.0 **** 0.06
10828 H 80.84399546799801 162.79785126988637 79.1209777288503 H 0.0 **** 0.06
10829 H 82.08451061011164 163.23625257586713 80.32049694251148 H 0.0 **** 0.06
10830 H 80.4890473572884 164.02435944840747 80.36101134727002 H 0.0 **** 0.06
10831 C 108.65455292528569 95.53882450644309 149.84918166961617 C 0.0 **** -0.24
10832 H 109.50460330425855 96.2017455475519 150.0084443734032 H 0.0 **** 0.06
10833 H 107.87628922757432 95.76278041709807 150.5785388750629 H 0.0 **** 0.06
10834 H 108.97433806092576 94.50359483993586 149.96458342721323 H 0.0 **** 0.06
10835 H 108.26296310914734 95.68725853146765 148.8421611442853 H 0.0 **** 0.06
10836 C 84.54285972828689 230.49747759279802 41.34596829485477 C 0.0 **** -0.24
10837 H 83.4862394570167 230.7612690520502 41.3880899583788 H 0.0 **** 0.06
10838 H 84.64920638186388 229.4820172859612 40.96340806356173 H 0.0 **** 0.06
10839 H 84.97111069009779 230.5554346848174 42.34671734419035 H 0.0 **** 0.06
10840 H 85.06404629207827 231.19147781820044 40.686761332496786 H 0.0 **** 0.06
10841 C 17.553057699999073 235.60816023494542 117.45121494938405 C 0.0 **** -0.24
10842 H 17.132615287913126 236.58835917674935 117.2267159955189 H 0.0 **** 0.06
10843 H 17.066419660717287 234.85378507347016 116.83352562855902 H 0.0 **** 0.06
10844 H 17.391769557012395 235.37592120449682 118.50423002212122 H 0.0 **** 0.06
10845 H 18.622939867261522 235.61620098048144 117.24012948090646 H 0.0 **** 0.06
10846 C 131.13317832892798 154.7514607049572 91.57468386285706 C 0.0 **** -0.24
10847 H 130.06736025458864 154.5794026169288 91.42466581205719 H 0.0 **** 0.06
10848 H 131.6427780695061 154.73797049569012 90.61024220759919 H 0.0 **** 0.06
10849 H 131.54164067330822 153.96796893904462 92.21286309612009 H 0.0 **** 0.06
10850 H 131.28054199812775 155.7217143367506 92.05035330730647 H 0.0 **** 0.06
10851 C 204.97409254271201 15.746297872949825 200.99462984358797 C 0.0 **** -0.24
10852 H 203.94450282217974 16.08551650525672 201.10988737654571 H 0.0 **** 0.06
10853 H 204.97970078554056 14.698785269203796 200.69213444094277 H 0.0 **** 0.06
10854 H 205.49959430633197 15.854508481426038 201.94367248435458 H 0.0 **** 0.06
10855 H 205.4715228806152 16.347712573380065 200.23318057130302 H 0.0 **** 0.06
10856 C 43.84446083919741 214.0708158824516 230.33705056055584 C 0.0 **** -0.24
10857 H 43.14356961401185 213.23693875955968 230.3078958513267 H 0.0 **** 0.06
10858 H 43.574346730093026 214.7449589932354 231.14933622144486 H 0.0 **** 0.06
10859 H 43.80746855139776 214.60946397825927 229.38989990017075 H 0.0 **** 0.06
10860 H 44.853861961324014 213.69150326217968 230.49910267819763 H 0.0 **** 0.06
10861 C 104.13852235094492 179.52488867481514 2.4335830456888914 C 0.0 **** -0.24
10862 H 103.72106061323615 178.82960409491824 3.1606941808264253 H 0.0 **** 0.06
10863 H 104.54408259040335 178.96668750857066 1.5894237450958713 H 0.0 **** 0.06
10864 H 104.93433491812831 180.10579374907832 2.9009899698075117 H 0.0 **** 0.06
10865 H 103.35564181341545 180.19741794486353 2.081833103324442 H 0.0 **** 0.06
10866 C 26.317569154546817 159.15437627319514 23.5157954644543 C 0.0 **** -0.24
10867 H 26.828959363194457 160.00049911644393 23.056277496867793 H 0.0 **** 0.06
10868 H 26.54520426626081 158.24652336450671 22.957262636503742 H 0.0 **** 0.06
10869 H 25.24179431065184 159.3298693552526 23.501090552925433 H 0.0 **** 0.06
10870 H 26.654524640096298 159.04313654858123 24.545983934932508 H 0.0 **** 0.06
10871 C 14.695427703554714 37.81143039810101 148.20801364451304 C 0.0 **** -0.24
10872 H 14.751638950770797 37.77702978543621 149.29676360586035 H 0.0 **** 0.06
10873 H 14.914527318955464 38.82362722671482 147.86597779597875 H 0.0 **** 0.06
10874 H 13.692318669381649 37.52789595209194 147.88738759227462 H 0.0 **** 0.06
10875 H 15.42202674078132 37.11870014286674 147.78556106260098 H 0.0 **** 0.06
10876 C 64.02894866089804 76.64965122716416 232.4700944641713 C 0.0 **** -0.24
10877 H 63.386141509941496 76.32651694350793 233.28857339782215 H 0.0 **** 0.06
10878 H 64.35633585435929 75.77950104383038 231.90011475932042 H 0.0 **** 0.06
10879 H 64.89789617103787 77.16859284919215 232.87446852926246 H 0.0 **** 0.06
10880 H 63.47488239876233 77.3242727127749 231.81801625594238 H 0.0 **** 0.06
10881 C 189.69098311183453 159.83362812448578 108.4848703613726 C 0.0 **** -0.24
10882 H 189.2310983886499 160.8035507893244 108.6755156849708 H 0.0 **** 0.06
10883 H 188.9292405831479 159.054997682397 108.53386558188225 H 0.0 **** 0.06
10884 H 190.45662994155606 159.64085506258544 109.23686042462253 H 0.0 **** 0.06
10885 H 190.14671654670133 159.8356406609296 107.49486957746615 H 0.0 **** 0.06
10886 C 19.884615903947847 237.24850962407857 180.98923270637368 C 0.0 **** -0.24
10887 H 19.434991051775526 237.27821645056105 179.99629586333907 H 0.0 **** 0.06
10888 H 20.41875337595097 236.30715786435408 181.11770290929655 H 0.0 **** 0.06
10889 H 19.10136401596003 237.32819728858863 181.74326316198872 H 0.0 **** 0.06
10890 H 20.580823324245145 238.08001156754625 181.09782972728487 H 0.0 **** 0.06
10891 C 63.66737201118269 149.5752428294568 77.9156754224183 C 0.0 **** -0.24
10892 H 63.58052122736956 150.40874725345034 78.61265453623838 H 0.0 **** 0.06
10893 H 64.6703866012277 149.15331413409635 77.97750967772444 H 0.0 **** 0.06
10894 H 63.48265143659785 149.92794463659442 76.90093983387655 H 0.0 **** 0.06
10895 H 62.93457542472126 148.80949925924233 78.17301863873084 H 0.0 **** 0.06
10896 C 7.713469509745863 75.67500202463822 213.16596187619334 C 0.0 **** -0.24
10897 H 7.386593275817944 75.52191058109798 212.13811193890004 H 0.0 **** 0.06
10898 H 6.9802656721938945 75.24375353046722 213.84770848619965 H 0.0 **** 0.06
10899 H 7.809412364169219 76.74263783708514 213.3615259369793 H 0.0 **** 0.06
10900 H 8.678237510320542 75.19044257261669 213.3165753321199 H 0.0 **** 0.06
10901 C 75.45019957976407 51.12309488287954 211.11030524777976 C 0.0 **** -0.24
10902 H 75.89299933633967 51.52469427186392 212.02119704454648 H 0.0 **** 0.06
10903 H 75.5373489587495 50.03671737912268 211.111877288831 H 0.0 **** 0.06
10904 H 75.97192542139263 51.52883304676803 210.24319552956746 H 0.0 **** 0.06
10905 H 74.39701382143565 51.40398733602413 211.0644164935788 H 0.0 **** 0.06
10906 C 235.6241921542972 20.735844399314402 32.69359790785897 C 0.0 **** -0.24
10907 H 235.97559227245318 20.93016332557545 33.70763375269915 H 0.0 **** 0.06
10908 H 236.31135509780145 20.049969298578702 32.19651539965989 H 0.0 **** 0.06
10909 H 235.580597989931 21.673484810455477 32.13846946476299 H 0.0 **** 0.06
10910 H 234.63096271775692 20.289972332105066 32.73348453960803 H 0.0 **** 0.06
10911 C 170.78724621141652 11.836767449729876 99.17936753293534 C 0.0 **** -0.24
10912 H 169.74699156936487 12.12218108521941 99.01890907274804 H 0.0 **** 0.06
10913 H 170.8307210176516 10.803100145251136 99.52482292724693 H 0.0 **** 0.06
10914 H 171.23100505553307 12.489714005222453 99.93117898315566 H 0.0 **** 0.06
10915 H 171.33837035373983 11.931663133950877 98.24405338646301 H 0.0 **** 0.06
10916 C 206.09331685248364 34.56859947033122 97.40526280845299 C 0.0 **** -0.24
10917 H 206.3450684089696 35.59412049427644 97.67522827079185 H 0.0 **** 0.06
10918 H 206.43428563905087 33.892500490953694 98.1900685406462 H 0.0 **** 0.06
10919 H 206.58078622480832 34.30982012093585 96.4657116277858 H 0.0 **** 0.06
10920 H 205.01295676838305 34.47780476500185 97.2914384617707 H 0.0 **** 0.06
10921 C 240.03863964700867 194.39764989215652 116.40943924739145 C 0.0 **** -0.24
10922 H 240.27004050129437 194.95666973187267 115.50267575335374 H 0.0 **** 0.06
10923 H 240.4857959951979 193.40513373439853 116.34850935146841 H 0.0 **** 0.06
10924 H 238.95800683180352 194.30449279174286 116.51267215232241 H 0.0 **** 0.06
10925 H 240.4418245490137 194.926193462205 117.27434341355547 H 0.0 **** 0.06
10926 C 153.0267726520343 94.85089561572752 2.832505103103017 C 0.0 **** -0.24
10927 H 153.8849638630167 94.54145568467104 2.2355726545794568 H 0.0 **** 0.06
10928 H 152.63495313452546 95.7914491356756 2.44572595740658 H 0.0 **** 0.06
10929 H 153.33593541125924 94.98548658437431 3.8699236523637524 H 0.0 **** 0.06
10930 H 152.25249412403846 94.0853514973775 2.780346357143131 H 0.0 **** 0.06
10931 C 159.34101263799425 111.52928050625218 114.57787258396885 C 0.0 **** -0.24
10932 H 158.5994274188258 112.07292971088162 113.99438440652011 H 0.0 **** 0.06
10933 H 160.21781446494546 112.15922772599589 114.73032793152208 H 0.0 **** 0.06
10934 H 159.63234298977142 110.62490318068433 114.0439467036141 H 0.0 **** 0.06
10935 H 158.9151267423495 111.25855717639075 115.54464797852165 H 0.0 **** 0.06
10936 C 225.7199277955131 144.26087743514887 179.54176703841148 C 0.0 **** -0.24
10937 H 225.8584091655854 144.17849798010727 178.4640086707915 H 0.0 **** 0.06
10938 H 226.49864570916043 143.6929286843328 180.05180351379528 H 0.0 **** 0.06
10939 H 224.74198767469824 143.86236576021267 179.813095512519 H 0.0 **** 0.06
10940 H 225.78028697523717 145.30826983978187 179.83622158861272 H 0.0 **** 0.06
10941 C 53.32786782501934 38.66624788153726 118.06226316350069 C 0.0 **** -0.24
10942 H 52.63731766530397 38.61217370491963 118.90455589199547 H 0.0 **** 0.06
10943 H 54.075564394244594 37.877531662703035 118.15518329956319 H 0.0 **** 0.06
10944 H 53.82172513160711 39.637867163155164 118.05918097723136 H 0.0 **** 0.06
10945 H 52.77546812376751 38.53644110478987 117.13157989812834 H 0.0 **** 0.06
10946 C 38.01257583403478 19.583178437603095 76.05652138590742 C 0.0 **** -0.24
10947 H 38.80446983332982 20.33191300171312 76.04864660842901 H 0.0 **** 0.06
10948 H 37.280537338254675 19.838122845554864 76.82335485314226 H 0.0 **** 0.06
10949 H 38.44083408786898 18.60438502450053 76.27361098973668 H 0.0 **** 0.06
10950 H 37.52643603730726 19.559188837640477 75.08161361648428 H 0.0 **** 0.06
10951 C 126.12648159957416 179.9805611956285 116.97770194178617 C 0.0 **** -0.24
10952 H 126.74624442832555 180.2459488249732 116.12098027444256 H 0.0 **** 0.06
10953 H 125.30544990283079 179.34305959362914 116.6477440023136 H 0.0 **** 0.06
10954 H 125.72399981317326 180.8879827890524 117.42912750935164 H 0.0 **** 0.06
10955 H 126.7301990828108 179.4471169923667 117.71060509556438 H 0.0 **** 0.06
10956 C 183.417777157287 32.51219628671295 104.85356355594524 C 0.0 **** -0.24
10957 H 183.29496551944027 31.68397575136501 104.15636802679961 H 0.0 **** 0.06
10958 H 184.33660605508334 32.37461797512137 105.42371374247512 H 0.0 **** 0.06
10959 H 182.56787114401203 32.543750819727435 105.53500955176844 H 0.0 **** 0.06
10960 H 183.47165157945756 33.44916416465499 104.29790509460443 H 0.0 **** 0.06
10961 C 53.963642730145835 223.10225959413538 180.30899353947586 C 0.0 **** -0.24
10962 H 52.93111981721741 222.90421334113228 180.59705548937484 H 0.0 **** 0.06
10963 H 54.192419596838334 222.56785493802522 179.3871316330721 H 0.0 **** 0.06
10964 H 54.632781341607625 222.76436522695246 181.10063012860502 H 0.0 **** 0.06
10965 H 54.09786353576612 224.172529434612 180.15284357710604 H 0.0 **** 0.06
10966 C 87.02769879896911 217.75962854273877 32.97162228862322 C 0.0 **** -0.24
10967 H 87.75413645051194 217.24517256386906 33.60052446802371 H 0.0 **** 0.06
10968 H 87.55150326539703 218.38668138440678 32.25056252838823 H 0.0 **** 0.06
10969 H 86.38313617181413 218.37968826416176 33.59343939668992 H 0.0 **** 0.06
10970 H 86.42283193532282 217.02381530417608 32.44135016236618 H 0.0 **** 0.06
10971 C 203.89297153469263 168.13558255576385 243.23495857249486 C 0.0 **** -0.24
10972 H 203.14689001729408 167.5603797789413 243.78365221055313 H 0.0 **** 0.06
10973 H 203.7982558216971 167.9284311798345 242.16923355832176 H 0.0 **** 0.06
10974 H 204.88978078906473 167.85434413123164 243.57367943355675 H 0.0 **** 0.06
10975 H 203.73467700410862 169.19950890672268 243.4140929911544 H 0.0 **** 0.06
10976 C 52.891656028244796 120.0917547095668 61.578215988228834 C 0.0 **** -0.24
10977 H 52.77876325059387 121.06372115022614 62.05722853137473 H 0.0 **** 0.06
10978 H 53.94915719678599 119.89646172077812 61.399136396542616 H 0.0 **** 0.06
10979 H 52.35582370508925 120.0907070891941 60.62846591419154 H 0.0 **** 0.06
10980 H 52.48365199149842 119.31650361992033 62.22596826568264 H 0.0 **** 0.06
10981 C 181.67357692362157 237.38554488291595 236.7006609671032 C 0.0 **** -0.24
10982 H 180.87970768319286 236.70405442520308 237.00709033681545 H 0.0 **** 0.06
10983 H 182.2097949583008 236.9591247613769 235.85227268438325 H 0.0 **** 0.06
10984 H 182.3641912470889 237.53522559772148 237.52947704514898 H 0.0 **** 0.06
10985 H 181.23836596003807 238.34221317609274 236.41168040832284 H 0.0 **** 0.06
10986 C 145.82125963239662 127.53832204768864 162.1382517896496 C 0.0 **** -0.24
10987 H 144.80873221595849 127.13643135413892 162.1044040685535 H 0.0 **** 0.06
10988 H 146.2318165736937 127.57254888129083 161.12891483172294 H 0.0 **** 0.06
10989 H 146.44577666995917 126.89968444677862 162.76262911938736 H 0.0 **** 0.06
10990 H 145.7979670929652 128.54473499787943 162.55586284971167 H 0.0 **** 0.06
10991 C 52.964950082195315 142.27405023187524 101.03842295311145 C 0.0 **** -0.24
10992 H 53.90941848425257 142.63093959902122 101.44897256597116 H 0.0 **** 0.06
10993 H 52.4726236200907 143.08440690284178 100.50062253340616 H 0.0 **** 0.06
10994 H 52.322260441269805 141.93332950843686 101.85021232450632 H 0.0 **** 0.06
10995 H 53.15499110757432 141.44652788705466 100.35474996941045 H 0.0 **** 0.06
10996 C 231.99858677733567 186.51971059823518 172.0055219593319 C 0.0 **** -0.24
10997 H 231.74274154530872 187.54970755701316 172.25353415430263 H 0.0 **** 0.06
10998 H 232.71996522943493 186.14030281958895 172.72954781506184 H 0.0 **** 0.06
10999 H 232.43329934527486 186.4855809626319 171.00652560267957 H 0.0 **** 0.06
11000 H 231.0988992194755 185.9061374909496 172.0318828150526 H 0.0 **** 0.06
11001 C 46.44952939817324 130.10206770281644 142.0981066024365 C 0.0 **** -0.24
11002 H 47.425334661002566 129.62068856595118 142.15182598505424 H 0.0 **** 0.06
11003 H 46.03426793366691 130.19352292273078 143.10249469600217 H 0.0 **** 0.06
11004 H 45.78156480762901 129.50072528489676 141.481863820889 H 0.0 **** 0.06
11005 H 46.55656720254258 131.09351872438646 141.65714701600746 H 0.0 **** 0.06
11006 C 34.111134780637855 136.1607400524088 186.27040561264232 C 0.0 **** -0.24
11007 H 34.9146850568263 136.71703959269013 186.7540856246027 H 0.0 **** 0.06
11008 H 34.5263754774073 135.54231434574137 185.47419183153096 H 0.0 **** 0.06
11009 H 33.389372190968714 136.86033365076497 185.8494684141565 H 0.0 **** 0.06
11010 H 33.61684527642902 135.52539231071626 187.00487936694708 H 0.0 **** 0.06
11011 C 37.0686336866807 202.6760487499633 114.60707324590288 C 0.0 **** -0.24
11012 H 37.998288846262 202.18277660697007 114.32005153186793 H 0.0 **** 0.06
11013 H 37.27024987157897 203.3997327373147 115.39648122910387 H 0.0 **** 0.06
11014 H 36.35991237857658 201.9309646479252 114.96778691629504 H 0.0 **** 0.06
11015 H 36.64837128941363 203.1881173939357 113.74173990792292 H 0.0 **** 0.06
11016 C 28.888571980727676 53.05485157829497 87.42274246853913 C 0.0 **** -0.24
11017 H 29.072738934807234 52.01761385412007 87.14148455620324 H 0.0 **** 0.06
11018 H 29.832098588891512 53.60197707221735 87.42719413173799 H 0.0 **** 0.06
11019 H 28.443794565729462 53.08755445953901 88.41717453695358 H 0.0 **** 0.06
11020 H 28.207739121855155 53.509800820426875 86.70384861907186 H 0.0 **** 0.06
11021 C 126.708151810407 27.129224448975577 180.84971392232052 C 0.0 **** -0.24
11022 H 126.50328148524608 26.644823661795485 181.80455348924295 H 0.0 **** 0.06
11023 H 127.64038343920566 27.68952381332531 180.919837953446 H 0.0 **** 0.06
11024 H 125.89161799598054 27.809750599766133 180.6062939832828 H 0.0 **** 0.06
11025 H 126.79479327169253 26.373173907819677 180.06973674353242 H 0.0 **** 0.06
11026 C 3.8047803706988645 186.52536479005238 203.72586444943443 C 0.0 **** -0.24
11027 H 4.046512317821765 185.94409617987122 202.83604534565768 H 0.0 **** 0.06
11028 H 3.9878598603886246 185.9215110382428 204.61439363378616 H 0.0 **** 0.06
11029 H 2.755924226761749 186.81872667728143 203.69478146379407 H 0.0 **** 0.06
11030 H 4.431419119131164 187.41703321261227 203.756733172422 H 0.0 **** 0.06
11031 C 43.25137543824617 39.58728307583755 222.79779013535168 C 0.0 **** -0.24
11032 H 43.28577637254388 38.5039025612752 222.68198509471938 H 0.0 **** 0.06
11033 H 44.15000379817997 40.026857030544704 222.36397175580208 H 0.0 **** 0.06
11034 H 43.19733743281324 39.83787104007962 223.85699083895122 H 0.0 **** 0.06
11035 H 42.37218148876504 39.97877446264266 222.28648781952654 H 0.0 **** 0.06
11036 C 143.07323082967363 178.7475645242363 52.0006257670785 C 0.0 **** -0.24
11037 H 142.62394120231062 178.1426170012838 52.78844611333861 H 0.0 **** 0.06
11038 H 143.4490739454596 178.09559142814925 51.212028528673585 H 0.0 **** 0.06
11039 H 143.89725042503494 179.32915485658393 52.41440948405776 H 0.0 **** 0.06
11040 H 142.32351275909238 179.42196815649618 51.58880649990553 H 0.0 **** 0.06
11041 C 215.35431912242362 32.052578791120126 88.67525968600458 C 0.0 **** -0.24
11042 H 215.7883365028154 31.618433800417094 89.57659903438761 H 0.0 **** 0.06
11043 H 214.45307426682672 31.50242982459646 88.40520896608845 H 0.0 **** 0.06
11044 H 216.07623450562005 31.992019934963494 87.85969338474104 H 0.0 **** 0.06
11045 H 215.1026685973268 33.097170980733864 88.86037788112571 H 0.0 **** 0.06
11046 C 201.70725397792407 185.95362395947066 147.73406681826427 C 0.0 **** -0.24
11047 H 201.00765958709474 185.15529113578455 147.98266079348818 H 0.0 **** 0.06
11048 H 202.67667217726188 185.74096634134995 148.183233433328 H 0.0 **** 0.06
11049 H 201.32793737491755 186.9008800335515 148.11827564242571 H 0.0 **** 0.06
11050 H 201.8133991708488 186.01867678835438 146.65107009655452 H 0.0 **** 0.06
11051 C 229.36631513279204 148.89889643244663 170.60455581538773 C 0.0 **** -0.24
11052 H 230.17138323393044 148.30600090976893 171.03870535320874 H 0.0 **** 0.06
11053 H 228.68006600192547 148.2413700306814 170.0687818405302 H 0.0 **** 0.06
11054 H 229.7865762021809 149.62796173097843 169.91154788171445 H 0.0 **** 0.06
11055 H 228.82899022783312 149.41793099376306 171.39683708964665 H 0.0 **** 0.06
11056 C 216.98271569218852 47.59777046259629 248.2156414076203 C 0.0 **** -0.24
11057 H 216.91507904734374 48.09648217121574 247.249131460201 H 0.0 **** 0.06
11058 H 216.18164174211827 47.95133675152678 248.86539827198726 H 0.0 **** 0.06
11059 H 217.94647714619458 47.819891606101834 248.67285210062352 H 0.0 **** 0.06
11060 H 216.88753110066577 46.52021185783369 248.07518524508097 H 0.0 **** 0.06
11061 C 53.5104946030165 182.86237816354804 176.34246350497327 C 0.0 **** -0.24
11062 H 54.04384536690537 181.91883768301403 176.23244132094294 H 0.0 **** 0.06
11063 H 52.481026687436184 182.66489084626824 176.64593535968743 H 0.0 **** 0.06
11064 H 53.512643466442285 183.39471400212153 175.3913239221974 H 0.0 **** 0.06
11065 H 54.00210200116342 183.47157737329516 177.10056445623084 H 0.0 **** 0.06
11066 C 76.7983488805101 154.2828390154092 49.94093793613126 C 0.0 **** -0.24
11067 H 76.89068116059568 154.41179859672664 48.86213779064664 H 0.0 **** 0.06
11068 H 76.12621752368872 155.04207158522797 50.34084031583626 H 0.0 **** 0.06
11069 H 77.77962157598634 154.38610744618958 50.40361719090063 H 0.0 **** 0.06
11070 H 76.39761253711089 153.29235969479416 50.15528732969827 H 0.0 **** 0.06
11071 C 12.164763471265928 147.96065289617005 14.447487945312645 C 0.0 **** -0.24
11072 H 11.331971073565512 147.7188675119873 15.107559316785597 H 0.0 **** 0.06
11073 H 11.804671508451335 148.56170584185236 13.613278324456445 H 0.0 **** 0.06
11074 H 12.60550127226935 147.0379637046426 14.068152435147937 H 0.0 **** 0.06
11075 H 12.916907077538397 148.52146531567456 15.00205353342929 H 0.0 **** 0.06
11076 C 66.13605640674163 141.80151230720048 115.13050353573419 C 0.0 **** -0.24
11077 H 66.90183095935546 141.39310559617059 114.47155979359894 H 0.0 **** 0.06
11078 H 65.4817841925877 140.99719156792167 115.46843044776975 H 0.0 **** 0.06
11079 H 65.54920539586718 142.54324951300944 114.5888197012813 H 0.0 **** 0.06
11080 H 66.61052619577387 142.27059906261348 115.99193757022192 H 0.0 **** 0.06
11081 C 230.45078874278306 217.36256706922006 243.78182896983355 C 0.0 **** -0.24
11082 H 230.93981714380928 217.8820352087185 242.95834391559356 H 0.0 **** 0.06
11083 H 229.44042890461583 217.75258523358696 243.91013879258531 H 0.0 **** 0.06
11084 H 231.01938212377334 217.51789434902818 244.69866132711618 H 0.0 **** 0.06
11085 H 230.40298220460323 216.2957830780534 243.56107791247643 H 0.0 **** 0.06
11086 C 85.35362343197295 142.63587956809266 7.111500191677166 C 0.0 **** -0.24
11087 H 85.03180589245909 142.80972775678663 6.084047584152302 H 0.0 **** 0.06
11088 H 84.85313407521892 143.34320352407016 7.7723842880899525 H 0.0 **** 0.06
11089 H 86.43251573689022 142.77258697295724 7.1818496370128315 H 0.0 **** 0.06
11090 H 85.09612803969989 141.61782387247897 7.405684324763882 H 0.0 **** 0.06
11091 C 54.002889360248275 184.2880628829638 61.42504137973606 C 0.0 **** -0.24
11092 H 53.74713146853421 184.44607279466652 62.47208164818733 H 0.0 **** 0.06
11093 H 53.094964898523045 184.08964968574884 60.855468782015464 H 0.0 **** 0.06
11094 H 54.679038646717544 183.43748022708814 61.340792618840595 H 0.0 **** 0.06
11095 H 54.490588569503956 185.18003419836612 61.031860476872225 H 0.0 **** 0.06
11096 C 58.33879816830475 116.2814993139414 242.08720943548863 C 0.0 **** -0.24
11097 H 59.113875826177804 115.69671118249857 241.5907781260368 H 0.0 **** 0.06
11098 H 57.775972242863276 116.84427454426199 241.3415529459591 H 0.0 **** 0.06
11099 H 58.80052643148113 116.97205169173986 242.79157934892618 H 0.0 **** 0.06
11100 H 57.664833403948165 115.6123150204437 242.62217340433506 H 0.0 **** 0.06
11101 C 228.18756084086183 108.513001808349 222.3234923459964 C 0.0 **** -0.24
11102 H 228.76375874811674 109.43758491291419 222.28943911334719 H 0.0 **** 0.06
11103 H 228.85401872360995 107.6653398608567 222.16296606813182 H 0.0 **** 0.06
11104 H 227.4268758719558 108.53109998573683 221.5435965873308 H 0.0 **** 0.06
11105 H 227.7080397955309 108.41939107252887 223.2978470893862 H 0.0 **** 0.06
11106 C 153.69289760288095 43.46254059316716 220.03086640215164 C 0.0 **** -0.24
11107 H 154.27646256527436 42.59820696204413 220.3485232641257 H 0.0 **** 0.06
11108 H 154.34044241942377 44.33667555471091 219.97029133447722 H 0.0 **** 0.06
11109 H 152.89786348716655 43.64773128277439 220.75293407835503 H 0.0 **** 0.06
11110 H 153.25505987441784 43.26383839278931 219.0520772834127 H 0.0 **** 0.06
11111 C 145.60513167637862 162.12019386261133 20.77350323063027 C 0.0 **** -0.24
11112 H 145.74979620348464 162.33806265696518 21.832447491776037 H 0.0 **** 0.06
11113 H 146.1550533933807 161.2160491777323 20.51069137512698 H 0.0 **** 0.06
11114 H 145.97104929012983 162.9562238780012 20.177635224775685 H 0.0 **** 0.06
11115 H 144.54319963359376 161.9712551071683 20.57574792393777 H 0.0 **** 0.06
11116 C 67.93480629926893 141.14070257450746 229.91309820255452 C 0.0 **** -0.24
11117 H 67.1048907444808 141.7943333660282 229.64483615168223 H 0.0 **** 0.06
11118 H 68.5724480384128 141.6437520967286 230.63988273554997 H 0.0 **** 0.06
11119 H 68.51450975191122 140.90570345527152 229.02103493135075 H 0.0 **** 0.06
11120 H 67.54525815650607 140.22022582583833 230.3468865839925 H 0.0 **** 0.06
11121 C 196.6536603715802 128.249682132878 220.66998221692842 C 0.0 **** -0.24
11122 H 196.77633053929523 128.82082059217157 219.74944299204367 H 0.0 **** 0.06
11123 H 197.27913196729844 128.68015182334108 221.45128989414383 H 0.0 **** 0.06
11124 H 196.9486233947959 127.21465148365226 220.4966503346293 H 0.0 **** 0.06
11125 H 195.60882610332584 128.283170921824 220.97989902707945 H 0.0 **** 0.06
11126 C 130.90278475071884 21.27051015285977 0.8006467620003548 C 0.0 **** -0.24
11127 H 130.24111583327445 20.873553432944533 1.570062883637462 H 0.0 **** 0.06
11128 H 131.16747322954598 22.29941734572091 1.0447278315047868 H 0.0 **** 0.06
11129 H 130.39562482140346 21.24390074021173 -0.16438449399069555 H 0.0 **** 0.06
11130 H 131.8076426021105 20.664500160008373 0.7511621187464641 H 0.0 **** 0.06
11131 C 75.11784730063715 185.39222589954173 230.0769016380354 C 0.0 **** -0.24
11132 H 74.11932101089559 185.69417713641553 230.394390657241 H 0.0 **** 0.06
11133 H 75.48592702899631 184.607585935117 230.73873697951586 H 0.0 **** 0.06
11134 H 75.78769844804077 186.2505604720534 230.12248414894654 H 0.0 **** 0.06
11135 H 75.07606801789535 185.01640136564674 229.0555060427055 H 0.0 **** 0.06
11136 C 26.415991471332305 16.10615246609447 171.98999844004277 C 0.0 **** -0.24
11137 H 27.200979346811692 16.839989182455525 171.8079262678562 H 0.0 **** 0.06
11138 H 26.583959067291076 15.62520913170053 172.9538827534512 H 0.0 **** 0.06
11139 H 26.433318801103624 15.353914705771416 171.20097011943147 H 0.0 **** 0.06
11140 H 25.446657359338175 16.604707491369794 171.9956407867102 H 0.0 **** 0.06
11141 C 139.06535820492255 248.73176794007202 55.92727358433726 C 0.0 **** -0.24
11142 H 139.67629053689097 249.28124927122997 56.64316499879351 H 0.0 **** 0.06
11143 H 139.64571608830965 247.9070289034537 55.5130214597707 H 0.0 **** 0.06
11144 H 138.75780436390585 249.40099499538 55.12395338092597 H 0.0 **** 0.06
11145 H 138.18187821821707 248.33855768262953 56.430119857707325 H 0.0 **** 0.06
11146 C 23.697834836153305 183.44118462730017 236.87516311796577 C 0.0 **** -0.24
11147 H 24.30693281402246 182.91765582037164 237.61156844361614 H 0.0 **** 0.06
11148 H 24.20590837623878 183.43004337524627 235.91027984486118 H 0.0 **** 0.06
11149 H 23.547639795893204 184.47279810524026 237.19499379277897 H 0.0 **** 0.06
11150 H 22.73168580347661 182.9444288349839 236.78328110739 H 0.0 **** 0.06
11151 C 98.1359718958278 2.0856354024794257 208.17878159789097 C 0.0 **** -0.24
11152 H 98.72199916707774 2.7617680629376054 207.5558488270493 H 0.0 **** 0.06
11153 H 97.57139131223445 2.6640142598338485 208.91044493299566 H 0.0 **** 0.06
11154 H 98.80384076110596 1.3968005487716653 208.6956551687461 H 0.0 **** 0.06
11155 H 97.44538458978138 1.5215010600082906 207.55117647154336 H 0.0 **** 0.06
11156 C 229.17825222833176 173.7716726643976 91.55107488426924 C 0.0 **** -0.24
11157 H 228.1900604154959 173.56630273206585 91.13704502949756 H 0.0 **** 0.06
11158 H 229.46142051450903 172.96484720490247 92.22777716604563 H 0.0 **** 0.06
11159 H 229.1538850093312 174.71304076811194 92.09830507601035 H 0.0 **** 0.06
11160 H 229.90402994237274 173.83890438228505 90.74130691490697 H 0.0 **** 0.06
11161 C 69.37914358718982 85.04061790893675 140.04065783980678 C 0.0 **** -0.24
11162 H 70.25214179363766 84.53532645177887 140.45236797169318 H 0.0 **** 0.06
11163 H 69.70275453499286 85.82222125098102 139.35300622523852 H 0.0 **** 0.06
11164 H 68.80141202918978 85.48619225544996 140.85071482642482 H 0.0 **** 0.06
11165 H 68.76076508000537 84.31956265362032 139.5067880971174 H 0.0 **** 0.06
11166 C 4.313439675649221 248.64076604524263 210.3363413284825 C 0.0 **** -0.24
11167 H 3.8465412422762597 247.65664159481247 210.31627951652362 H 0.0 **** 0.06
11168 H 4.053067720467112 249.14699861363812 211.26623035793267 H 0.0 **** 0.06
11169 H 3.9576055795353398 249.22891177994543 209.49058707503306 H 0.0 **** 0.06
11170 H 5.396284357317938 248.53077604876427 210.2731972842704 H 0.0 **** 0.06
11171 C 210.65718493841695 4.966710649406508 5.024828204153607 C 0.0 **** -0.24
11172 H 209.7201948576925 5.196659335648661 4.518037561877918 H 0.0 **** 0.06
11173 H 211.39417819459533 5.736503645523683 4.7912275320212245 H 0.0 **** 0.06
11174 H 211.0239708128641 3.9974984006273786 4.686365042684201 H 0.0 **** 0.06
11175 H 210.4908506959771 4.93697641835989 6.1014109270674055 H 0.0 **** 0.06
11176 C 91.32116863152325 116.4290406292861 8.73535141305021 C 0.0 **** -0.24
11177 H 92.27923796701711 115.99745254061787 8.446215742701156 H 0.0 **** 0.06
11178 H 90.56994251019992 116.18117462197606 7.98548254057269 H 0.0 **** 0.06
11179 H 91.41883634091513 117.51225893177121 8.807916538145918 H 0.0 **** 0.06
11180 H 91.0190375041328 116.02584988180556 9.701878997381158 H 0.0 **** 0.06
11181 C 186.9930631492453 214.42854255197545 90.92036645762269 C 0.0 **** -0.24
11182 H 187.15336171609823 214.26935074512352 89.85424502796843 H 0.0 **** 0.06
11183 H 185.93232991364857 214.6037451957048 91.10548702707638 H 0.0 **** 0.06
11184 H 187.56749971193432 215.29383631033664 91.24832209235561 H 0.0 **** 0.06
11185 H 187.31727716949985 213.54582651122752 91.47250343320337 H 0.0 **** 0.06
11186 C 108.76675054602188 113.75246525957317 200.81230930882276 C 0.0 **** -0.24
11187 H 109.51177575080621 114.54190853524867 200.70988209405976 H 0.0 **** 0.06
11188 H 109.2273504028185 112.78845696363922 200.59497925538543 H 0.0 **** 0.06
11189 H 107.94940308974438 113.93127113260081 200.11490186118786 H 0.0 **** 0.06
11190 H 108.38081066604676 113.74932343300136 201.8321809265831 H 0.0 **** 0.06
11191 C 143.37962490280373 76.77767607662844 105.95127896009893 C 0.0 **** -0.24
11192 H 144.43209660636526 76.96345568368005 106.1662273792328 H 0.0 **** 0.06
11193 H 142.86952285137428 77.72712840121994 105.78876204022251 H 0.0 **** 0.06
11194 H 142.9234345534422 76.25857705550331 106.79382340056497 H 0.0 **** 0.06
11195 H 143.29548026202818 76.16091808653181 105.05561783808321 H 0.0 **** 0.06
11196 C 106.90106481892278 1.4790172764530922 82.11391431747674 C 0.0 **** -0.24
11197 H 106.06164987596247 1.877395048058645 81.54396056993949 H 0.0 **** 0.06
11198 H 106.7162519119999 1.6177172002758908 83.1793771720655 H 0.0 **** 0.06
11199 H 107.81362488197934 2.0039986187857153 81.83164088611167 H 0.0 **** 0.06
11200 H 107.01315500036918 0.41563886621770507 81.89923611691765 H 0.0 **** 0.06
11201 C 77.36803014995331 138.63944996302124 79.34865626694292 C 0.0 **** -0.24
11202 H 76.64741296624277 138.36622486934542 78.578910545497 H 0.0 **** 0.06
11203 H 77.20807982430583 139.67587846719667 79.64640854862532 H 0.0 **** 0.06
11204 H 78.37951154041133 138.52567949982958 78.95641365713865 H 0.0 **** 0.06
11205 H 77.239383595569 137.98832875869448 80.21298768790516 H 0.0 **** 0.06
11206 C 47.21362338048979 201.24794697486328 163.11670249829564 C 0.0 **** -0.24
11207 H 46.34232232163899 200.60619386947383 163.2472551128781 H 0.0 **** 0.06
11208 H 47.02386658389031 202.21757131456872 163.57769878117972 H 0.0 **** 0.06
11209 H 47.40816091131231 201.3833820771002 162.05296895671742 H 0.0 **** 0.06
11210 H 48.08065679036142 200.78473024857266 163.5880334895091 H 0.0 **** 0.06
11211 C 8.665381825391165 45.799434151535394 103.11606449119859 C 0.0 **** -0.24
11212 H 7.721894467520514 46.11183306264863 102.66866411878826 H 0.0 **** 0.06
11213 H 8.594281116595454 45.872906463427825 104.2019356124338 H 0.0 **** 0.06
11214 H 9.467526075673817 46.445990176464846 102.76001045203813 H 0.0 **** 0.06
11215 H 8.876595956092132 44.76808613815936 102.83421624885989 H 0.0 **** 0.06
11216 C 146.49214211247343 93.57666404249605 60.142213998776185 C 0.0 **** -0.24
11217 H 146.89572047625612 94.57785233713443 59.99516278290042 H 0.0 **** 0.06
11218 H 147.28075705097768 92.84084781437969 59.98521551106984 H 0.0 **** 0.06
11219 H 145.68471183680018 93.40225789025686 59.430571237414426 H 0.0 **** 0.06
11220 H 146.1073790858598 93.48569812821327 61.15790646371994 H 0.0 **** 0.06
11221 C 65.54027961120394 213.44934265142064 169.91236401099067 C 0.0 **** -0.24
11222 H 66.01348764176143 212.89818715981826 169.0995895312768 H 0.0 **** 0.06
11223 H 65.03402837741197 212.74972686780848 170.5777586431854 H 0.0 **** 0.06
11224 H 64.81379195962668 214.1503240721371 169.49987725887084 H 0.0 **** 0.06
11225 H 66.29918869968284 213.99729264967172 170.46954203429078 H 0.0 **** 0.06
11226 C 169.96637637673481 197.06712944875068 207.0537249431415 C 0.0 **** -0.24
11227 H 170.90378376779282 197.04469267964822 207.60968406557498 H 0.0 **** 0.06
11228 H 169.18234608414056 196.5952405300497 207.6461107293593 H 0.0 **** 0.06
11229 H 170.0878271271905 196.52712543347107 206.114987523686 H 0.0 **** 0.06
11230 H 169.69206111705267 198.10151227846754 206.8462933396325 H 0.0 **** 0.06
11231 C 69.94499015829678 4.106349304266416 2.482468794264406 C 0.0 **** -0.24
11232 H 70.18368869187054 3.4887473641137348 1.6166989511081908 H 0.0 **** 0.06
11233 H 69.7879690685086 5.135979742437655 2.1614670736824735 H 0.0 **** 0.06
11234 H 70.77043450086623 4.0676572292206 3.1933626899339345 H 0.0 **** 0.06
11235 H 69.03926520018877 3.7298226104460213 2.9569785518492324 H 0.0 **** 0.06
11236 C 131.86918939657824 3.9465391032386776 40.44338829275077 C 0.0 **** -0.24
11237 H 130.9424718591706 4.512395136579016 40.342352976165586 H 0.0 **** 0.06
11238 H 131.99654899789888 3.30010451201656 39.57425226551382 H 0.0 **** 0.06
11239 H 131.82574857212578 3.336955923289878 41.34604205367256 H 0.0 **** 0.06
11240 H 132.70993121401318 4.636133932889237 40.51023680998364 H 0.0 **** 0.06
11241 C 153.55478653550318 153.26485198935876 124.90618370863083 C 0.0 **** -0.24
11242 H 154.37924614439254 152.65963852555615 125.28211798241432 H 0.0 **** 0.06
11243 H 152.63842382094168 153.00007671801734 125.43512889934132 H 0.0 **** 0.06
11244 H 153.42527621915417 153.0787631914839 123.83936618911721 H 0.0 **** 0.06
11245 H 153.77542152258133 154.31951577199268 125.06657405645078 H 0.0 **** 0.06
11246 C 100.70095808516007 204.39266028611848 231.07679543731655 C 0.0 **** -0.24
11247 H 100.64473290024333 205.36532931154318 230.58863638619664 H 0.0 **** 0.06
11248 H 101.56291646501325 203.8448654433119 230.6959462143945 H 0.0 **** 0.06
11249 H 99.79069176900813 203.8288450531341 230.87055966306656 H 0.0 **** 0.06
11250 H 100.80456033123701 204.53215188427814 232.15295074192738 H 0.0 **** 0.06
11251 C 119.96454917775316 214.9288095909522 150.71260068783275 C 0.0 **** -0.24
11252 H 119.76848764137367 215.96152541135996 151.00535741632459 H 0.0 **** 0.06
11253 H 120.86188519149107 214.5730256609415 151.21959817287075 H 0.0 **** 0.06
11254 H 120.11074648127587 214.8793372982289 149.6334406382022 H 0.0 **** 0.06
11255 H 119.11648181112756 214.30473105587564 150.99349441830478 H 0.0 **** 0.06
11256 C 206.70346107583615 186.58287934662403 169.0259543876677 C 0.0 **** -0.24
11257 H 206.40824950175895 186.852684699527 170.0398738942914 H 0.0 **** 0.06
11258 H 205.83143085181376 186.22852568217832 168.47691401431592 H 0.0 **** 0.06
11259 H 207.454891290308 185.7943693777357 169.06450602373945 H 0.0 **** 0.06
11260 H 207.11879921902488 187.45731382176837 168.52389547152768 H 0.0 **** 0.06
11261 C 138.046397087752 89.88123989978072 96.85685562617365 C 0.0 **** -0.24
11262 H 138.58847533461326 88.97639350107116 96.57916199332638 H 0.0 **** 0.06
11263 H 138.73163223043 90.58378942198121 97.33111034311881 H 0.0 **** 0.06
11264 H 137.24761052542232 89.62593751752851 97.55246563247837 H 0.0 **** 0.06
11265 H 137.6182744406543 90.33544112257312 95.96317121944031 H 0.0 **** 0.06
11266 C 153.339267570716 62.409064369374676 171.19173434080568 C 0.0 **** -0.24
11267 H 153.63243778234215 61.91672410679786 170.2642226875057 H 0.0 **** 0.06
11268 H 152.75925369259807 61.7156957579372 171.80213458253343 H 0.0 **** 0.06
11269 H 152.7339531926644 63.28526512368441 170.96187286101372 H 0.0 **** 0.06
11270 H 154.2307769124518 62.71660975812719 171.7373931049683 H 0.0 **** 0.06
11271 C 103.12361185024514 76.84644266941697 238.28356447221825 C 0.0 **** -0.24
11272 H 103.61955426217091 77.24239742363102 239.17003417291306 H 0.0 **** 0.06
11273 H 102.95648488035917 75.7764005290384 238.40862432698378 H 0.0 **** 0.06
11274 H 103.75297678734708 77.01613291173655 237.40984451227405 H 0.0 **** 0.06
11275 H 102.1674423301481 77.3506075128127 238.14713420292483 H 0.0 **** 0.06
11276 C 241.28262979497418 153.43686050604975 210.7199552140023 C 0.0 **** -0.24
11277 H 240.2737752786246 153.10857297445932 210.47197049610395 H 0.0 **** 0.06
11278 H 241.4361874859988 153.3573538579011 211.79624945792733 H 0.0 **** 0.06
11279 H 241.41311469595703 154.47457977691903 210.41054611696933 H 0.0 **** 0.06
11280 H 242.0068976030238 152.8090414072221 210.20157322745422 H 0.0 **** 0.06
11281 C 22.267865466830415 237.10626244974767 138.80438963568182 C 0.0 **** -0.24
11282 H 22.414150498902202 237.5911921947063 139.76920018403328 H 0.0 **** 0.06
11283 H 21.487203123425104 237.62699630395346 138.25068924850623 H 0.0 **** 0.06
11284 H 21.973057174386014 236.06871357625437 138.96083123129353 H 0.0 **** 0.06
11285 H 23.19882052080861 237.13736711125804 138.2373475146138 H 0.0 **** 0.06
11286 C 34.58802955293211 150.10456237294778 68.59994274410607 C 0.0 **** -0.24
11287 H 34.10385101637948 149.48123520463034 67.8481169956411 H 0.0 **** 0.06
11288 H 34.45923260211072 151.15495009644692 68.33917935927647 H 0.0 **** 0.06
11289 H 35.65069200868268 149.86634175986617 68.63800857308621 H 0.0 **** 0.06
11290 H 34.13772169032379 149.91335704752746 69.57460572850727 H 0.0 **** 0.06
11291 C 78.30374929199675 32.78567218455291 155.09464695116495 C 0.0 **** -0.24
11292 H 78.83764901358566 31.843569817299354 154.9728488415324 H 0.0 **** 0.06
11293 H 78.6581090260012 33.50221233911988 154.35396419175848 H 0.0 **** 0.06
11294 H 78.48240168818882 33.17729361115249 156.09590093772772 H 0.0 **** 0.06
11295 H 77.23544326975511 32.6171565015465 154.95572508475084 H 0.0 **** 0.06
11296 C 168.18183838103647 181.78293243955974 43.85364667251879 C 0.0 **** -0.24
11297 H 169.00269663829442 182.34242924164747 44.302267468991715 H 0.0 **** 0.06
11298 H 167.27664278622296 181.93185525063663 44.44163008430064 H 0.0 **** 0.06
11299 H 168.43243103676704 180.72265691180752 43.83413544544341 H 0.0 **** 0.06
11300 H 168.0166218629128 182.13609907582298 42.83545690417111 H 0.0 **** 0.06
11301 C 101.56101744177383 16.45584075914107 160.49118929352116 C 0.0 **** -0.24
11302 H 101.83749481223273 15.662113299325938 159.796637236834 H 0.0 **** 0.06
11303 H 102.0751616575354 17.3756473649141 160.2137778751227 H 0.0 **** 0.06
11304 H 101.84835966216903 16.16877476934019 161.50300061046025 H 0.0 **** 0.06
11305 H 100.4832539809872 16.6140798432983 160.45015411603896 H 0.0 **** 0.06
11306 C 234.05391914144928 112.4721458214222 214.8126755456475 C 0.0 **** -0.24
11307 H 234.07777678948494 112.37002390573397 215.8982235679735 H 0.0 **** 0.06
11308 H 234.9538939470215 112.027238067137 214.38665204730876 H 0.0 **** 0.06
11309 H 234.00921342175118 113.52821816421613 214.54883816631758 H 0.0 **** 0.06
11310 H 233.17529132796983 111.96088304204608 214.4196003585197 H 0.0 **** 0.06
11311 C 176.3923613803741 70.07375382348894 184.56592978633103 C 0.0 **** -0.24
11312 H 177.10560111307447 70.38394815975732 183.80248095149568 H 0.0 **** 0.06
11313 H 175.38384533936164 70.10524952053791 184.15368594520336 H 0.0 **** 0.06
11314 H 176.45828905574405 70.74707738056753 185.42015369808303 H 0.0 **** 0.06
11315 H 176.62260457302307 69.05701307499825 184.88511452438524 H 0.0 **** 0.06
11316 C 94.70484790375025 152.18334783777814 86.5399812037659 C 0.0 **** -0.24
11317 H 95.01669919322381 151.62759900602865 87.42483632625814 H 0.0 **** 0.06
11318 H 94.3098890963658 151.49099692314854 85.79711761491885 H 0.0 **** 0.06
11319 H 95.56213577282222 152.71384444380126 86.12359743176833 H 0.0 **** 0.06
11320 H 93.932509680804 152.90139277447653 86.81592632268578 H 0.0 **** 0.06
11321 C 27.440218266198514 204.8924417932659 7.120214107154013 C 0.0 **** -0.24
11322 H 28.408470257101897 205.05075204978576 6.646104935598856 H 0.0 **** 0.06
11323 H 27.06371369261288 205.8419773976197 7.502579149411304 H 0.0 **** 0.06
11324 H 27.54991809582465 204.1874221244434 7.944737479182493 H 0.0 **** 0.06
11325 H 26.738442392034273 204.4909030248274 6.38949267953096 H 0.0 **** 0.06
11326 C 54.621573228670314 83.00935982285066 120.89710914644587 C 0.0 **** -0.24
11327 H 53.58543333171221 83.27040633720515 120.68314561082818 H 0.0 **** 0.06
11328 H 54.940864069941 82.20981778646862 120.22845418172395 H 0.0 **** 0.06
11329 H 54.7039094431596 82.6730856990319 121.93105548852412 H 0.0 **** 0.06
11330 H 55.25467961440884 83.88408237395694 120.74778622953156 H 0.0 **** 0.06
11331 C 116.60078306316333 209.62088287141424 52.48612861103982 C 0.0 **** -0.24
11332 H 117.47678475271167 209.75671036040856 53.120136102467626 H 0.0 **** 0.06
11333 H 115.70844607310266 209.55131678566272 53.1086620079688 H 0.0 **** 0.06
11334 H 116.71183089765967 208.7057106608671 51.905893523012224 H 0.0 **** 0.06
11335 H 116.50711220946204 210.47074719102673 51.809747074711154 H 0.0 **** 0.06
11336 C 231.01061764601684 45.51116500189849 195.41151678050966 C 0.0 **** -0.24
11337 H 231.38094532316313 45.51986151846873 194.38727104162848 H 0.0 **** 0.06
11338 H 230.3055690002845 44.68896609140097 195.53537529301894 H 0.0 **** 0.06
11339 H 230.50852014255318 46.4551337157736 195.62463115849584 H 0.0 **** 0.06
11340 H 231.84654642696512 45.38049545474121 196.09919847872442 H 0.0 **** 0.06
11341 C 60.39752949662116 185.99021145302555 126.05708148966684 C 0.0 **** -0.24
11342 H 59.56574995458814 185.81800897740533 125.37352704686245 H 0.0 **** 0.06
11343 H 60.08131311904839 186.66676088908162 126.85119334221176 H 0.0 **** 0.06
11344 H 61.22945792089254 186.43359620991322 125.51002607934797 H 0.0 **** 0.06
11345 H 60.71316423290975 185.0412468862097 126.49053106297035 H 0.0 **** 0.06
11346 C 215.12419524666365 5.922605935996131 141.28874303383176 C 0.0 **** -0.24
11347 H 215.61340134554692 6.851408707338663 141.58422295790396 H 0.0 **** 0.06
11348 H 214.34450467762952 5.67830998905319 142.01154777567453 H 0.0 **** 0.06
11349 H 215.85858652016785 5.118423844939599 141.25944833900863 H 0.0 **** 0.06
11350 H 214.67936895421715 6.045303999955621 140.301490118543 H 0.0 **** 0.06
11351 C 215.11376774089206 56.18403912555186 32.27376746923275 C 0.0 **** -0.24
11352 H 214.16428568945082 56.64744952771122 32.00571672338148 H 0.0 **** 0.06
11353 H 215.03176987653734 55.732281273652006 33.26178961056982 H 0.0 **** 0.06
11354 H 215.8965393533247 56.94209589991215 32.28392092440768 H 0.0 **** 0.06
11355 H 215.36133265680934 55.41529986050435 31.54124434263437 H 0.0 **** 0.06
11356 C 174.4451248398272 110.73784141093222 223.93098676442958 C 0.0 **** -0.24
11357 H 174.3895993035853 110.79504269288938 222.84329126006668 H 0.0 **** 0.06
11358 H 173.48847280212763 110.39365048335353 224.32542188477998 H 0.0 **** 0.06
11359 H 174.67167637030403 111.72456033883086 224.33522769856904 H 0.0 **** 0.06
11360 H 175.23072324089594 110.03856919034587 224.21759989160324 H 0.0 **** 0.06
11361 C 143.4159192937272 123.103410522659 88.97472338485105 C 0.0 **** -0.24
11362 H 144.20126393846564 123.70362824795296 89.43430149748389 H 0.0 **** 0.06
11363 H 142.50461374446292 123.1841930942555 89.56727544268634 H 0.0 **** 0.06
11364 H 143.73225234729497 122.06085409372724 88.93428743723354 H 0.0 **** 0.06
11365 H 143.22707172152138 123.46540359435357 87.96460548617316 H 0.0 **** 0.06
11366 C 233.73659425223167 23.87133610568182 157.9980791811321 C 0.0 **** -0.24
11367 H 233.00067204610815 24.02379739381294 157.20917955360693 H 0.0 **** 0.06
11368 H 234.73748635199405 24.029211699764602 157.59687864987208 H 0.0 **** 0.06
11369 H 233.65471535217605 22.852620199736265 158.3795530810425 H 0.0 **** 0.06
11370 H 233.553545509753 24.577747152708838 158.80776625630708 H 0.0 **** 0.06
11371 C 203.22874133552705 113.12773510278936 93.82755790857121 C 0.0 **** -0.24
11372 H 202.68149949720453 114.05641503484014 93.66256841385663 H 0.0 **** 0.06
11373 H 202.8978758320273 112.67213027859637 94.76118247854666 H 0.0 **** 0.06
11374 H 204.2960751206357 113.3404189526511 93.88375163838754 H 0.0 **** 0.06
11375 H 203.03738551000998 112.44206893224671 93.00205295961675 H 0.0 **** 0.06
11376 C 117.36646648572736 99.45286382788714 47.46978665909434 C 0.0 **** -0.24
11377 H 117.30139703535977 100.34018432811945 46.84149544619423 H 0.0 **** 0.06
11378 H 117.25721793681709 99.73978762048966 48.515830188020075 H 0.0 **** 0.06
11379 H 118.33408860066021 98.97339026534362 47.32244653366186 H 0.0 **** 0.06
11380 H 116.57121840547384 98.75700477165341 47.19918316515651 H 0.0 **** 0.06
11381 C 222.9429130693144 141.46728294937233 234.62666284027063 C 0.0 **** -0.24
11382 H 222.86533579227122 140.5450322918523 234.05218216597373 H 0.0 **** 0.06
11383 H 223.25539130839059 141.23573968681856 235.64488955182352 H 0.0 **** 0.06
11384 H 221.97274052061837 141.96384768294155 234.64869150511237 H 0.0 **** 0.06
11385 H 223.67673304864408 142.12538342851755 234.1612538081008 H 0.0 **** 0.06
11386 C 110.45781930686388 75.65920284324187 20.428002999057753 C 0.0 **** -0.24
11387 H 109.82851914174879 75.4127081993949 21.283401307165803 H 0.0 **** 0.06
11388 H 111.44720846277673 75.22428324746707 20.56752578100233 H 0.0 **** 0.06
11389 H 110.54488634326478 76.74240413492217 20.341934050053155 H 0.0 **** 0.06
11390 H 110.00783512343867 75.25738447386976 19.519125768488422 H 0.0 **** 0.06
11391 C 196.5150802378882 102.2159685564323 221.39345797487067 C 0.0 **** -0.24
11392 H 197.07486766906635 103.12657562320646 221.1832239198967 H 0.0 **** 0.06
11393 H 197.1622064356182 101.50016973499106 221.90078065770683 H 0.0 **** 0.06
11394 H 196.15956426805727 101.78516249578917 220.45687529684307 H 0.0 **** 0.06
11395 H 195.6639930632101 102.45168023252779 222.0316023053383 H 0.0 **** 0.06
11396 C 34.39632017251384 8.06150762178001 103.27227300843393 C 0.0 **** -0.24
11397 H 34.59727166363362 7.439991916548564 102.39929689093074 H 0.0 **** 0.06
11398 H 35.14341690324133 7.860106696894576 104.04048633746075 H 0.0 **** 0.06
11399 H 33.40426473465257 7.831436865221775 103.6610596154413 H 0.0 **** 0.06
11400 H 34.44042489971386 9.112392319489317 102.98699649316899 H 0.0 **** 0.06
11401 C 111.58936872846928 59.9852378327831 153.79083082047507 C 0.0 **** -0.24
11402 H 112.00374940324684 60.61678043136874 154.5764415180099 H 0.0 **** 0.06
11403 H 112.26455944562093 59.97988121174441 152.93512212495713 H 0.0 **** 0.06
11404 H 110.61891376754647 60.37497667364994 153.48621079828055 H 0.0 **** 0.06
11405 H 111.47134770912896 58.96927645201225 154.1674978878978 H 0.0 **** 0.06
11406 C 155.02911091390393 233.80652157436515 193.61685557004364 C 0.0 **** -0.24
11407 H 154.72418698885093 232.81758934600452 193.95991099129415 H 0.0 **** 0.06
11408 H 154.94202513670206 234.51750272989923 194.43822663679515 H 0.0 **** 0.06
11409 H 154.3874768689265 234.11931065784395 192.79434642682742 H 0.0 **** 0.06
11410 H 156.06460109328208 233.7694390934084 193.2772947433902 H 0.0 **** 0.06
11411 C 81.54773598995538 228.73096482469575 225.12611314190076 C 0.0 **** -0.24
11412 H 81.79677539772601 227.8419401574962 225.7044867857043 H 0.0 **** 0.06
11413 H 80.70825832739271 229.2456987746476 225.5942090621445 H 0.0 **** 0.06
11414 H 81.2758723287649 228.44064191567927 224.1119187253944 H 0.0 **** 0.06
11415 H 82.41046670419888 229.3964546797542 225.09405791454762 H 0.0 **** 0.06
11416 C 221.79338433893906 20.284956868726937 41.853637240580625 C 0.0 **** -0.24
11417 H 222.0738326573417 20.716612261981425 40.893114504691454 H 0.0 **** 0.06
11418 H 222.48770586551638 20.62725639175362 42.622123571018236 H 0.0 **** 0.06
11419 H 221.83046569054454 19.198115826952204 41.78847528786997 H 0.0 **** 0.06
11420 H 220.78246822395306 20.599458600406976 42.11155356671067 H 0.0 **** 0.06
11421 C 174.8113705825557 37.053482569723315 116.80928041944858 C 0.0 **** -0.24
11422 H 175.00116990963906 38.12622332843536 116.8252503554578 H 0.0 **** 0.06
11423 H 175.61438406314704 36.54958705840126 116.27264532999311 H 0.0 **** 0.06
11424 H 173.86166402558177 36.86033022055675 116.30885339175882 H 0.0 **** 0.06
11425 H 174.76477919716652 36.677357920238535 117.8316639422811 H 0.0 **** 0.06
11426 C 184.8648977727551 246.40128142151477 143.48573932174244 C 0.0 **** -0.24
11427 H 185.62046588970014 245.7154548971545 143.102990886553 H 0.0 **** 0.06
11428 H 184.076185841105 245.8334421125016 143.97925282377275 H 0.0 **** 0.06
11429 H 184.44089262097043 246.9723986535614 142.66021990882842 H 0.0 **** 0.06
11430 H 185.32343184765512 247.08423637702646 144.2018780051728 H 0.0 **** 0.06
11431 C 153.9259295913639 199.6991705904208 65.1865062510478 C 0.0 **** -0.24
11432 H 154.22157222367824 199.51650965288792 64.15336009223185 H 0.0 **** 0.06
11433 H 153.47500865584715 200.6889739684821 65.26587352257769 H 0.0 **** 0.06
11434 H 154.80390510252758 199.6462393932908 65.82980855414033 H 0.0 **** 0.06
11435 H 153.20237422570017 198.94489503281739 65.49547968579668 H 0.0 **** 0.06
11436 C 225.38014806763323 100.18220659879168 112.0667014943227 C 0.0 **** -0.24
11437 H 224.65224966564273 100.93073871205704 111.75614691615158 H 0.0 **** 0.06
11438 H 225.3385376186615 100.06330692411106 113.14949603115573 H 0.0 **** 0.06
11439 H 226.38004884189456 100.50510435140356 111.7752841635569 H 0.0 **** 0.06
11440 H 225.15059381675633 99.23156644774636 111.58719268207773 H 0.0 **** 0.06
11441 C 170.0861548588108 124.69990506663754 235.54162715552758 C 0.0 **** -0.24
11442 H 170.1247958320868 125.28757786185162 234.6242781855496 H 0.0 **** 0.06
11443 H 169.07992431126047 124.30340341863007 235.67700845690737 H 0.0 **** 0.06
11444 H 170.34425765068997 125.33421244633166 236.3898238714166 H 0.0 **** 0.06
11445 H 170.79697474598868 123.87646146625895 235.47511181448303 H 0.0 **** 0.06
11446 C 29.09164198114975 54.91306387532731 94.03327858868803 C 0.0 **** -0.24
11447 H 29.748695861664174 54.36540558421768 93.35880831631991 H 0.0 **** 0.06
11448 H 29.69077153664881 55.530312500342234 94.70308265290413 H 0.0 **** 0.06
11449 H 28.502216277193384 54.20710626399986 94.61878244397315 H 0.0 **** 0.06
11450 H 28.424362178737226 55.5499754001323 93.45309763559919 H 0.0 **** 0.06
11451 C 20.534866369728675 160.96320750019876 219.6670789732247 C 0.0 **** -0.24
11452 H 20.160415707951827 161.26410577761325 218.68816758472397 H 0.0 **** 0.06
11453 H 19.72929216227783 160.49741203893174 220.2356652589782 H 0.0 **** 0.06
11454 H 20.896487826622135 161.84148038588117 220.20168838921498 H 0.0 **** 0.06
11455 H 21.350882076106743 160.25218731100094 219.54147157756003 H 0.0 **** 0.06
11456 C 42.957635409759064 100.21822165607531 5.669293900185011 C 0.0 **** -0.24
11457 H 43.66244297611419 100.87282710814682 5.156260208196699 H 0.0 **** 0.06
11458 H 41.945296269821 100.43554676190698 5.327750580651099 H 0.0 **** 0.06
11459 H 43.02244274915455 100.38586441015298 6.744372262338544 H 0.0 **** 0.06
11460 H 43.201548111210315 99.1787902907374 5.44803927922473 H 0.0 **** 0.06
11461 C 200.38201891385157 36.99653635628286 26.666973569326572 C 0.0 **** -0.24
11462 H 199.34615271191467 37.33069109268362 26.61549167597795 H 0.0 **** 0.06
11463 H 201.01770841956798 37.8287963272154 26.970268423256485 H 0.0 **** 0.06
11464 H 200.69783018602655 36.6369011500511 25.687752283630587 H 0.0 **** 0.06
11465 H 200.46765095518458 36.1897743526153 27.39556316650942 H 0.0 **** 0.06
11466 C 108.62806876555535 145.40592986594442 60.423284270461835 C 0.0 **** -0.24
11467 H 108.40633953555584 146.14935678392965 59.657808514940314 H 0.0 **** 0.06
11468 H 109.26556623576639 144.6283754238548 60.0017126394269 H 0.0 **** 0.06
11469 H 107.69804295436708 144.96057787233423 60.77815913893011 H 0.0 **** 0.06
11470 H 109.14219329707677 145.8857775927016 61.25681573743779 H 0.0 **** 0.06
11471 C 86.81149775357318 229.72333411671354 204.66173189536858 C 0.0 **** -0.24
11472 H 87.39801388718385 228.80901305159918 204.569187915019 H 0.0 **** 0.06
11473 H 87.39020280076369 230.4732205850205 205.2011911834083 H 0.0 **** 0.06
11474 H 85.89215700231185 229.5099663585486 205.2078970358997 H 0.0 **** 0.06
11475 H 86.56479037896847 230.0993884348698 203.66916190586178 H 0.0 **** 0.06
11476 C 234.7328131377272 22.86231267609527 153.48747787927283 C 0.0 **** -0.24
11477 H 235.0006642219605 22.754194761091483 152.4366653947232 H 0.0 **** 0.06
11478 H 234.6720237196234 21.876051998227823 153.9492441685372 H 0.0 **** 0.06
11479 H 233.7681028536483 23.362320308077997 153.56709567999133 H 0.0 **** 0.06
11480 H 235.4933116930105 23.45522123758184 153.99604641786604 H 0.0 **** 0.06
11481 C 20.111045525653097 143.68737911142972 127.13501767230366 C 0.0 **** -0.24
11482 H 20.64725390029892 144.61542827304405 127.33438894890796 H 0.0 **** 0.06
11483 H 20.174649746912223 143.4528826629104 126.07216279345695 H 0.0 **** 0.06
11484 H 19.065736352555277 143.8041531856944 127.41964042196906 H 0.0 **** 0.06
11485 H 20.557057265578493 142.87832275648233 127.71353120900125 H 0.0 **** 0.06
11486 C 66.68178044777855 248.37242900263698 138.24764610410793 C 0.0 **** -0.24
11487 H 66.05744151091 247.50918461185057 138.4734680740867 H 0.0 **** 0.06
11488 H 66.62140551009318 248.5961101883917 137.18198472502215 H 0.0 **** 0.06
11489 H 67.71558601603999 248.1531077103123 138.51505737793474 H 0.0 **** 0.06
11490 H 66.33261266413294 249.23278430818198 138.8191626677749 H 0.0 **** 0.06
11491 C 180.80905454314436 195.04715854057918 31.09248698157721 C 0.0 **** -0.24
11492 H 180.9210277254568 194.22057033426574 30.3907202723083 H 0.0 **** 0.06
11493 H 180.13529165349382 194.75153010610188 31.89764409741923 H 0.0 **** 0.06
11494 H 180.39556175158455 195.91206679153646 30.572426397154928 H 0.0 **** 0.06
11495 H 181.78312921226478 195.304916335232 31.508574748907762 H 0.0 **** 0.06
11496 C 1.6927054371627435 140.8575467923078 203.90304257380552 C 0.0 **** -0.24
11497 H 0.6261780295824622 141.00191084321872 203.72962434641437 H 0.0 **** 0.06
11498 H 1.8509673699855966 139.913957836442 204.42564530639618 H 0.0 **** 0.06
11499 H 2.0752997687893355 141.67814235308012 204.51032016797183 H 0.0 **** 0.06
11500 H 2.215873403452889 140.83760581480783 202.94741126517766 H 0.0 **** 0.06
11501 C 202.11545691981036 27.06149324914054 113.69031170071085 C 0.0 **** -0.24
11502 H 201.77467112236133 27.642122536701876 114.54795221202687 H 0.0 **** 0.06
11503 H 203.10918135078526 26.661999937086023 113.89448913451656 H 0.0 **** 0.06
11504 H 202.15535708514648 27.703461056178412 112.81027426892376 H 0.0 **** 0.06
11505 H 201.42352542584564 26.239857603861196 113.51026941325858 H 0.0 **** 0.06
11506 C 57.34583191417437 112.60350751855577 75.27075605399995 C 0.0 **** -0.24
11507 H 58.32232300563993 112.29460255620333 74.89726650264066 H 0.0 **** 0.06
11508 H 57.177166555446945 113.6513726228142 75.02318528479162 H 0.0 **** 0.06
11509 H 57.314162161043214 112.47656625407225 76.35340859400043 H 0.0 **** 0.06
11510 H 56.571004894287086 111.99100014728936 74.81016146628298 H 0.0 **** 0.06
11511 C 149.2224803093295 165.34101898979424 0.2012023281655786 C 0.0 **** -0.24
11512 H 148.4431208309757 164.7348213550968 0.6624189750070713 H 0.0 **** 0.06
11513 H 149.75109943426034 164.74697718274047 -0.543751840410863 H 0.0 **** 0.06
11514 H 149.92323923132406 165.67480010471587 0.9656339190976837 H 0.0 **** 0.06
11515 H 148.76917099058355 166.2085278206045 -0.27975159007785066 H 0.0 **** 0.06
11516 C 248.28888142946127 104.34866842040822 206.01115951002964 C 0.0 **** -0.24
11517 H 247.58414603664497 103.60802788171995 205.63062803151817 H 0.0 **** 0.06
11518 H 248.3598757834162 104.25800970474725 207.09486258921598 H 0.0 **** 0.06
11519 H 247.93982521097828 105.34845643195271 205.75129557337698 H 0.0 **** 0.06
11520 H 249.26934514185106 104.17915274207246 205.56598099104457 H 0.0 **** 0.06
11521 C 152.76069952596507 12.747028875552559 200.62701271894952 C 0.0 **** -0.24
11522 H 153.02574163810968 12.336208448066742 201.60121691937474 H 0.0 **** 0.06
11523 H 152.80938910332333 11.95847277174127 199.8758215522528 H 0.0 **** 0.06
11524 H 153.4585603371917 13.542053360774872 200.3646600495185 H 0.0 **** 0.06
11525 H 151.7483901313374 13.149813310631117 200.6665217303135 H 0.0 **** 0.06
11526 C 211.19445217202394 162.02571733571256 212.87966485493138 C 0.0 **** -0.24
11527 H 211.66568239831926 162.85648900440225 212.35269797246974 H 0.0 **** 0.06
11528 H 211.38656304922122 161.098274804923 212.3403659303802 H 0.0 **** 0.06
11529 H 210.11921093959728 162.19715468362432 212.93740655860483 H 0.0 **** 0.06
11530 H 211.60621832689637 161.95382774323576 213.88601970441778 H 0.0 **** 0.06
11531 C 178.78880764246742 132.3291260368661 216.18834008337458 C 0.0 **** -0.24
11532 H 179.85811387182827 132.502187804021 216.06217593175873 H 0.0 **** 0.06
11533 H 178.59066027349692 131.25718778930687 216.16763769521955 H 0.0 **** 0.06
11534 H 178.2447857786279 132.81567612593494 215.37841984224679 H 0.0 **** 0.06
11535 H 178.46520021969465 132.74099205079276 217.1439734788598 H 0.0 **** 0.06
11536 C 130.35091106341778 92.95254105297965 32.11208929285341 C 0.0 **** -0.24
11537 H 130.77626533201834 93.93784319825266 31.92150860805819 H 0.0 **** 0.06
11538 H 131.04605232779988 92.18428139364636 31.771305927926036 H 0.0 **** 0.06
11539 H 129.40817955936865 92.85333392003494 31.574416696423214 H 0.0 **** 0.06
11540 H 130.17326482275936 92.8337253844933 33.18128442306538 H 0.0 **** 0.06
11541 C 81.9047225236979 153.56807842786284 59.5059646297544 C 0.0 **** -0.24
11542 H 81.93444614827388 154.44865208416886 58.8630189661844 H 0.0 **** 0.06
11543 H 80.86859391531738 153.3401873572782 59.76027301739464 H 0.0 **** 0.06
11544 H 82.46880371576793 153.7647753676248 60.41741418237487 H 0.0 **** 0.06
11545 H 82.34486166777018 152.72092203901852 58.981339867294366 H 0.0 **** 0.06
11546 C 81.40263521077242 180.42541537953295 174.22536491504252 C 0.0 **** -0.24
11547 H 80.91270978080706 180.48237128263412 175.1977926372219 H 0.0 **** 0.06
11548 H 81.59984808714293 179.38118694818638 173.97943067577953 H 0.0 **** 0.06
11549 H 82.34369868725912 180.97442216414657 174.26081423536928 H 0.0 **** 0.06
11550 H 80.75467375610359 180.86163375622533 173.46558004848893 H 0.0 **** 0.06
11551 C 42.374313221271436 19.97659149236972 240.06024917999906 C 0.0 **** -0.24
11552 H 41.7265383615115 19.250002370984546 240.55144827995 H 0.0 **** 0.06
11553 H 41.92855173797703 20.969120798204173 240.13556092961568 H 0.0 **** 0.06
11554 H 42.49033484540624 19.709235004782556 239.0098720755277 H 0.0 **** 0.06
11555 H 43.350471777555825 19.97920612056295 240.54496683311652 H 0.0 **** 0.06
11556 C 19.3943234799153 16.526490382070136 64.71068203490833 C 0.0 **** -0.24
11557 H 20.03333661356973 15.761322335817368 64.27118159789003 H 0.0 **** 0.06
11558 H 19.90120815133193 16.97819499581209 65.56286067337206 H 0.0 **** 0.06
11559 H 18.460047949316817 16.072587465369992 65.04204580784213 H 0.0 **** 0.06
11560 H 19.180953866248018 17.293227244086637 63.96504299758897 H 0.0 **** 0.06
11561 C 188.01325917688442 65.82397222282358 247.44281473247605 C 0.0 **** -0.24
11562 H 189.06274168001136 66.06030807681867 247.26504404794366 H 0.0 **** 0.06
11563 H 187.75832995233543 64.89571865237832 246.92916700143172 H 0.0 **** 0.06
11564 H 187.38949475012038 66.63269078249158 247.06354070351162 H 0.0 **** 0.06
11565 H 187.84427372634758 65.70499385413268 248.51342840806507 H 0.0 **** 0.06
11566 C 153.87851638210083 36.7812837268811 199.7000799161244 C 0.0 **** -0.24
11567 H 154.6144898462533 36.39644415477659 198.9941492305744 H 0.0 **** 0.06
11568 H 154.16993306829372 36.505638589932175 200.71346120667397 H 0.0 **** 0.06
11569 H 152.90137090528657 36.3566719860782 199.4739049001298 H 0.0 **** 0.06
11570 H 153.8311998328653 37.86701623078682 199.61865732033755 H 0.0 **** 0.06
11571 C 4.787996694578013 194.76656249180735 190.78815395049514 C 0.0 **** -0.24
11572 H 5.130525814860633 193.7448396633548 190.62158612269343 H 0.0 **** 0.06
11573 H 5.419428680830563 195.24326102434733 191.5389167221974 H 0.0 **** 0.06
11574 H 3.755640888115707 194.7498904758229 191.1386123776333 H 0.0 **** 0.06
11575 H 4.8464894148789455 195.32687700727033 189.85525587980368 H 0.0 **** 0.06
11576 C 226.44928102030636 138.07762029815953 103.43556833225227 C 0.0 **** -0.24
11577 H 226.50924629430358 137.0857422401434 102.98581877029952 H 0.0 **** 0.06
11578 H 225.4649489809174 138.2146678546088 103.88195153235043 H 0.0 **** 0.06
11579 H 226.61051549497654 138.8341885581152 102.66747166918802 H 0.0 **** 0.06
11580 H 227.21507171796077 138.1729846883065 104.20579220624933 H 0.0 **** 0.06
11581 C 203.70724366394518 227.33607969728297 174.85131243774634 C 0.0 **** -0.24
11582 H 202.99052958757653 227.1621631443545 174.04815146815048 H 0.0 **** 0.06
11583 H 204.4658055841622 226.55229650664913 174.83670729220472 H 0.0 **** 0.06
11584 H 203.18883431503957 227.3218842272277 175.81059332207622 H 0.0 **** 0.06
11585 H 204.18318333759638 228.30671217899263 174.70993497589632 H 0.0 **** 0.06
11586 C 229.33865516741793 156.03094411446324 200.7102493240725 C 0.0 **** -0.24
11587 H 229.1004805573881 155.3679228741557 199.87900672941953 H 0.0 **** 0.06
11588 H 230.24741529683314 156.5879498851363 200.4818173442219 H 0.0 **** 0.06
11589 H 229.49025479855752 155.44026123276836 201.61357642544863 H 0.0 **** 0.06
11590 H 228.51524650848074 156.72795352909088 200.86595939131269 H 0.0 **** 0.06
11591 C 49.57023298957259 246.8343571814397 144.29418358914072 C 0.0 **** -0.24
11592 H 48.66645046909892 247.28574821285292 143.88495399472623 H 0.0 **** 0.06
11593 H 50.29762895912111 246.6894961671274 143.49413422867076 H 0.0 **** 0.06
11594 H 49.32450185081771 245.8713866795721 144.74042968341664 H 0.0 **** 0.06
11595 H 49.99165187971386 247.4908996496477 145.05413401954615 H 0.0 **** 0.06
11596 C 189.04373728394592 24.195733011575584 0.5523740721376953 C 0.0 **** -0.24
11597 H 189.31994771110197 24.790841026705976 1.4226698936574138 H 0.0 **** 0.06
11598 H 188.69295529081836 23.216571069574684 0.8782551129078939 H 0.0 **** 0.06
11599 H 189.91173174830857 24.074597563445906 -0.09512679637464316 H 0.0 **** 0.06
11600 H 188.2501078705649 24.702902932772844 0.0038846990197924924 H 0.0 **** 0.06
11601 C 210.42198037857185 137.29710510420463 214.7639128350616 C 0.0 **** -0.24
11602 H 210.54086965619956 137.06102107334868 213.70678926987955 H 0.0 **** 0.06
11603 H 210.0825510639209 138.3275756670049 214.87045734141702 H 0.0 **** 0.06
11604 H 211.37878056248576 137.17483788066363 215.27319244344275 H 0.0 **** 0.06
11605 H 209.68699775535254 136.62491154017692 215.20581431444847 H 0.0 **** 0.06
11606 C 130.9436998762321 101.49721091074483 192.30239621184018 C 0.0 **** -0.24
11607 H 131.9390649923999 101.93062853303891 192.2037553405218 H 0.0 **** 0.06
11608 H 130.82270497233006 100.69561366286305 191.57345268941046 H 0.0 **** 0.06
11609 H 130.1922399255055 102.26684300634884 192.12596789945627 H 0.0 **** 0.06
11610 H 130.8224287451845 101.09442081968916 193.30764345416503 H 0.0 **** 0.06
11611 C 229.81518883584317 115.76851339693656 234.86566565809272 C 0.0 **** -0.24
11612 H 229.03638761898608 115.14354093543838 235.3011408502411 H 0.0 **** 0.06
11613 H 229.6196578624323 116.81399953657461 235.10658047936255 H 0.0 **** 0.06
11614 H 229.82037543080548 115.64017050687787 233.7832083739799 H 0.0 **** 0.06
11615 H 230.78382020469505 115.47707464707335 235.27063761573748 H 0.0 **** 0.06
11616 C 164.30278570694767 60.1063069766912 123.41903623554421 C 0.0 **** -0.24
11617 H 163.27464252952797 59.880019867370095 123.70001009810593 H 0.0 **** 0.06
11618 H 164.52553544103014 59.64593996090181 122.45583150775582 H 0.0 **** 0.06
11619 H 164.9817484607075 59.712701317064074 124.17611796321384 H 0.0 **** 0.06
11620 H 164.430810796234 61.186651154440824 123.3435139592194 H 0.0 **** 0.06
11621 C 210.19228715654023 53.25936237601991 115.39391289621636 C 0.0 **** -0.24
11622 H 209.79366155493778 54.22425818818934 115.08117136257289 H 0.0 **** 0.06
11623 H 209.41740395008762 52.49804055632126 115.30159996712331 H 0.0 **** 0.06
11624 H 210.5196890618996 53.321699915130836 116.43138076847464 H 0.0 **** 0.06
11625 H 211.03932726886632 52.994490209335936 114.76127844400554 H 0.0 **** 0.06
11626 C 176.71238919286156 37.45376740772602 184.3814715896191 C 0.0 **** -0.24
11627 H 177.67950682982016 36.96109948580548 184.27200295148998 H 0.0 **** 0.06
11628 H 175.93889059403332 36.70258378264154 184.53985291356508 H 0.0 **** 0.06
11629 H 176.4906489787328 38.020611850992594 183.47712031612576 H 0.0 **** 0.06
11630 H 176.74453152557396 38.13028556305832 185.23530039061728 H 0.0 **** 0.06
11631 C 62.03506967736641 209.14131227154868 154.21105495025043 C 0.0 **** -0.24
11632 H 61.60672626484188 208.76244359755748 153.28274248965323 H 0.0 **** 0.06
11633 H 63.11216944127176 208.97256542336194 154.20927339494014 H 0.0 **** 0.06
11634 H 61.586787581512056 208.6188610002018 155.0571267064838 H 0.0 **** 0.06
11635 H 61.833939151855645 210.2086341367431 154.2952636397205 H 0.0 **** 0.06
11636 C 116.7699117606546 168.57310970759033 213.84746929022992 C 0.0 **** -0.24
11637 H 117.42684271068916 168.70674306741284 212.98797151735926 H 0.0 **** 0.06
11638 H 116.74708202530749 167.51976962718607 214.12709412560133 H 0.0 **** 0.06
11639 H 115.7629321428845 168.90267312903393 213.59068032209566 H 0.0 **** 0.06
11640 H 117.14279016373706 169.16325300672838 214.68413119586367 H 0.0 **** 0.06
11641 C 108.24804193228604 11.18594680576382 236.8866006249363 C 0.0 **** -0.24
11642 H 108.72554316606542 12.136729395884657 236.64961622114174 H 0.0 **** 0.06
11643 H 108.92398048131278 10.368417128193585 236.63699920689024 H 0.0 **** 0.06
11644 H 107.32926405315828 11.087836184445408 236.30733635383666 H 0.0 **** 0.06
11645 H 108.01333368002503 11.152779532822947 237.94978664924577 H 0.0 **** 0.06
11646 C 70.58158508435744 156.57330556434405 217.8917961724132 C 0.0 **** -0.24
11647 H 70.42827256889339 155.9060576068165 218.7393933618331 H 0.0 **** 0.06
11648 H 71.60277136268601 156.95231818516322 217.9078452813424 H 0.0 **** 0.06
11649 H 69.88261097345523 157.4077793676452 217.95739528654232 H 0.0 **** 0.06
11650 H 70.40961068515793 156.02804770108082 216.96380951463203 H 0.0 **** 0.06
11651 C 191.9393382006543 82.04552113115341 6.08578028617444 C 0.0 **** -0.24
11652 H 192.1397877657859 82.58707890395647 7.009991146861992 H 0.0 **** 0.06
11653 H 192.65723615949324 82.35054876530407 5.323795876047058 H 0.0 **** 0.06
11654 H 190.92929167877176 82.27106842431289 5.743733489908223 H 0.0 **** 0.06
11655 H 192.03137005890946 80.97458239818334 6.26491970168729 H 0.0 **** 0.06
11656 C 86.29429580944435 67.48716420851142 193.91527861612684 C 0.0 **** -0.24
11657 H 86.47608923355935 67.20892331526053 194.95347114516505 H 0.0 **** 0.06
11658 H 87.24402337949664 67.5409642090965 193.38310977876503 H 0.0 **** 0.06
11659 H 85.8019223721486 68.45906005866746 193.8806603433482 H 0.0 **** 0.06
11660 H 85.6553327820422 66.7386023639574 193.4460505369658 H 0.0 **** 0.06
11661 C 55.55741062891079 25.554058645602083 142.06277585337116 C 0.0 **** -0.24
11662 H 54.546621585339125 25.881663207158766 142.30861592919481 H 0.0 **** 0.06
11663 H 56.23420856187582 26.407244756302788 142.09921182150194 H 0.0 **** 0.06
11664 H 55.566141628259516 25.124602854584936 141.06134035607485 H 0.0 **** 0.06
11665 H 55.87991759932302 24.80286689931964 142.7837791708566 H 0.0 **** 0.06
11666 C 33.68798255789079 238.44308325389775 169.99552363033897 C 0.0 **** -0.24
11667 H 33.874694457522395 238.24783332608496 168.93948541974564 H 0.0 **** 0.06
11668 H 34.30396457219524 237.77846527218463 170.6020297508646 H 0.0 **** 0.06
11669 H 32.6355172796699 238.26611590810552 170.21629491966658 H 0.0 **** 0.06
11670 H 33.93814785025587 239.4788821126497 170.2234065231681 H 0.0 **** 0.06
11671 C 178.15204937466268 128.0630508267285 68.98570132562875 C 0.0 **** -0.24
11672 H 179.01275230056737 128.11601565664 69.65172141569576 H 0.0 **** 0.06
11673 H 178.49012316558853 128.12743671245667 67.95006569149567 H 0.0 **** 0.06
11674 H 177.475993377292 128.8909008396982 69.19945401743732 H 0.0 **** 0.06
11675 H 177.63080214249283 127.11814495614342 69.13990829665886 H 0.0 **** 0.06
11676 C 200.88223216756842 203.63735774029448 213.98827978882804 C 0.0 **** -0.24
11677 H 200.26250345326724 203.99182690943607 214.812314681362 H 0.0 **** 0.06
11678 H 200.24515629848426 203.2232192163546 213.20636662515875 H 0.0 **** 0.06
11679 H 201.56190254134626 202.86538236487587 214.35008467907466 H 0.0 **** 0.06
11680 H 201.45936637717597 204.46900247051147 213.58435316971676 H 0.0 **** 0.06
11681 C 201.60640235726873 174.65633921977604 119.10070377676399 C 0.0 **** -0.24
11682 H 200.74565593815691 175.16782866103796 118.66774333906821 H 0.0 **** 0.06
11683 H 202.00850934698857 173.94673113149912 118.37693246728301 H 0.0 **** 0.06
11684 H 201.29720202641457 174.12335044100035 120.00018734664283 H 0.0 **** 0.06
11685 H 202.37159243493528 175.38835756372345 119.35756531697135 H 0.0 **** 0.06
11686 C 214.73748735587623 142.25137068118667 102.58869366716229 C 0.0 **** -0.24
11687 H 215.76682727874288 141.91557353499135 102.71033724104635 H 0.0 **** 0.06
11688 H 214.38042040810484 141.97803356292272 101.59517285950929 H 0.0 **** 0.06
11689 H 214.6929342113579 143.33511643265203 102.70570115744593 H 0.0 **** 0.06
11690 H 214.11027306588934 141.77873739804332 103.34447510515596 H 0.0 **** 0.06
11691 C 134.01333872587296 150.62319458121118 3.381252942002064 C 0.0 **** -0.24
11692 H 133.7287834231254 151.00432131595562 2.3995038498909054 H 0.0 **** 0.06
11693 H 133.3756189509112 149.77829349601848 3.6404984058166434 H 0.0 **** 0.06
11694 H 133.89455888912184 151.4118680373517 4.124270505631358 H 0.0 **** 0.06
11695 H 135.05391624409293 150.30008848472372 3.357056972400173 H 0.0 **** 0.06
11696 C 236.90757995285446 58.433603529639726 124.05939747092776 C 0.0 **** -0.24
11697 H 236.2190387248054 57.63500487453945 123.78082118414454 H 0.0 **** 0.06
11698 H 237.1170554926464 58.37535027691996 125.12828340603363 H 0.0 **** 0.06
11699 H 236.45736959861455 59.398482195634585 123.82822360487779 H 0.0 **** 0.06
11700 H 237.83713260046034 58.3225176878654 123.5010137488386 H 0.0 **** 0.06
11701 C 217.02639303367317 220.9674355176627 116.94270619450413 C 0.0 **** -0.24
11702 H 217.8205734182074 220.70608441317378 116.24457893564525 H 0.0 **** 0.06
11703 H 216.11612122573027 221.19863021665384 116.38753069347908 H 0.0 **** 0.06
11704 H 217.32686936230618 221.83835502148239 117.5253628382797 H 0.0 **** 0.06
11705 H 216.83983901358962 220.1283203700601 117.61259120808751 H 0.0 **** 0.06
11706 C 80.10663069830238 104.15547139649593 240.69708030845447 C 0.0 **** -0.24
11707 H 81.05191727757469 103.6974347918518 240.9867151002711 H 0.0 **** 0.06
11708 H 80.01068165138165 105.1279731702783 241.18008822867623 H 0.0 **** 0.06
11709 H 79.28179792218461 103.51294002644326 241.006913989012 H 0.0 **** 0.06
11710 H 80.08146699101056 104.28216714152299 239.61543317057004 H 0.0 **** 0.06
11711 C 103.76028679748774 10.261890706968387 210.61154264232914 C 0.0 **** -0.24
11712 H 104.1856790796596 9.453146536753565 210.0160328963064 H 0.0 **** 0.06
11713 H 103.2906605123195 10.990847136707004 209.9503480759322 H 0.0 **** 0.06
11714 H 104.55138106975792 10.745541092724963 211.18416269201634 H 0.0 **** 0.06
11715 H 103.01299412832287 9.85541049521261 211.29422638240231 H 0.0 **** 0.06
11716 C 90.77716424771748 215.6496909642228 84.84821045621257 C 0.0 **** -0.24
11717 H 91.14455650458677 216.51542816845713 85.39983405824253 H 0.0 **** 0.06
11718 H 91.52034092195794 214.85251213940825 84.88824711320783 H 0.0 **** 0.06
11719 H 90.59940946809917 215.9303841185016 83.81028600986261 H 0.0 **** 0.06
11720 H 89.84604458831959 215.30249485076223 85.29617876840456 H 0.0 **** 0.06
11721 C 215.43576161160482 171.9061002473888 130.94324232801304 C 0.0 **** -0.24
11722 H 216.23587842174663 171.80042017048413 130.2106814912668 H 0.0 **** 0.06
11723 H 215.20988751988463 170.93190248503385 131.37815978521496 H 0.0 **** 0.06
11724 H 214.5454530789553 172.30149792180924 130.45530385363503 H 0.0 **** 0.06
11725 H 215.75324480498548 172.59124037924883 131.7307097954413 H 0.0 **** 0.06
11726 C 58.12975101887508 66.32450447450356 178.9582508538468 C 0.0 **** -0.24
11727 H 57.563812235519265 65.39387396685203 178.9070577945026 H 0.0 **** 0.06
11728 H 58.09549402493715 66.82323577629685 177.98821005927627 H 0.0 **** 0.06
11729 H 59.16511150459047 66.1066464465641 179.2186872282958 H 0.0 **** 0.06
11730 H 57.692735857453414 66.97411938966377 179.7157993787998 H 0.0 **** 0.06
11731 C 99.76932666404565 24.767732058466066 179.06515580811748 C 0.0 **** -0.24
11732 H 100.44278062577467 25.10938855529261 179.8508727825859 H 0.0 **** 0.06
11733 H 99.46949718648406 25.61584844938264 178.45005139784087 H 0.0 **** 0.06
11734 H 98.8859893736905 24.314705018660987 179.51546270746138 H 0.0 **** 0.06
11735 H 100.27895188708268 24.03001626083457 178.44446336114834 H 0.0 **** 0.06
11736 C 18.24283630132399 233.28481729178776 135.69423256087939 C 0.0 **** -0.24
11737 H 17.881736465734576 234.15631909662878 135.14722973468676 H 0.0 **** 0.06
11738 H 18.33717764200624 233.5339065261906 136.7513531013929 H 0.0 **** 0.06
11739 H 19.215115084510444 232.98731655522963 135.3014223664359 H 0.0 **** 0.06
11740 H 17.53591399717652 232.4637180440426 135.57490757994802 H 0.0 **** 0.06
11741 C 172.1320102458766 91.49186042318385 99.2654734277406 C 0.0 **** -0.24
11742 H 172.1224716019134 91.66362070298123 100.34175777140675 H 0.0 **** 0.06
11743 H 172.3728720910597 92.42317404512019 98.75120686748116 H 0.0 **** 0.06
11744 H 171.1495047141278 91.14387101611922 98.94496159983939 H 0.0 **** 0.06
11745 H 172.8817977454782 90.73877952311565 99.02416775649644 H 0.0 **** 0.06
11746 C 147.99312977402528 112.30906459924077 185.63638839752772 C 0.0 **** -0.24
11747 H 147.0275524137081 112.78250872685487 185.45888463054823 H 0.0 **** 0.06
11748 H 147.86763166403594 111.22721948123993 185.66082035997857 H 0.0 **** 0.06
11749 H 148.3949333321464 112.65029517921954 186.59031772337647 H 0.0 **** 0.06
11750 H 148.68231978013338 112.5771359695998 184.83595698921923 H 0.0 **** 0.06
11751 C 221.14313009470777 217.2203170771879 35.119401580676 C 0.0 **** -0.24
11752 H 221.48121829701233 216.28275531325815 34.67781933753682 H 0.0 **** 0.06
11753 H 220.1203118527351 217.104514668149 35.47692949301077 H 0.0 **** 0.06
11754 H 221.17901035631536 218.00881973880573 34.366994949525065 H 0.0 **** 0.06
11755 H 221.79243713371187 217.48380700451864 35.95343154538611 H 0.0 **** 0.06
11756 C 7.703312198697219 28.212590893858334 74.54250757335359 C 0.0 **** -0.24
11757 H 7.465246264313052 27.195291779742178 74.85326743686045 H 0.0 **** 0.06
11758 H 8.760540714027698 28.2757538647098 74.28360627776306 H 0.0 **** 0.06
11759 H 7.487668541343112 28.901513741698835 75.35935804580356 H 0.0 **** 0.06
11760 H 7.099813379263921 28.477925695077403 73.6747909249975 H 0.0 **** 0.06
11761 C 238.11089918056513 217.17805780748103 232.2335678843246 C 0.0 **** -0.24
11762 H 238.16061218646678 217.14643835673152 233.32196734971257 H 0.0 **** 0.06
11763 H 237.11965186470974 216.8666522775241 231.9052450000243 H 0.0 **** 0.06
11764 H 238.86109335847073 216.50551532562446 231.81669274444252 H 0.0 **** 0.06
11765 H 238.3038694647385 218.1948549829722 231.89127773826868 H 0.0 **** 0.06
11766 C 202.91454100160163 124.6422793675967 242.86846594078094 C 0.0 **** -0.24
11767 H 202.1758783254119 124.06297196956439 242.31457700104053 H 0.0 **** 0.06
11768 H 202.4486085016101 125.0722249784439 243.75470701356028 H 0.0 **** 0.06
11769 H 203.29804632085717 125.44173454936166 242.23499325347248 H 0.0 **** 0.06
11770 H 203.7362406508966 123.99115926058383 243.1688288445231 H 0.0 **** 0.06
11771 C 220.02810248660958 171.68610867658373 25.12063083749777 C 0.0 **** -0.24
11772 H 220.11105310483163 170.62566703599933 25.3574245978171 H 0.0 **** 0.06
11773 H 220.97496024078788 172.1815110335417 25.335361987623827 H 0.0 **** 0.06
11774 H 219.23873828173484 172.1320627131913 25.724619004102635 H 0.0 **** 0.06
11775 H 219.788063963522 171.8034747842253 24.06374660725433 H 0.0 **** 0.06
11776 C 248.61171683029718 122.4179317568244 53.24178488123701 C 0.0 **** -0.24
11777 H 248.88597121076543 122.27666694975105 54.28691231456659 H 0.0 **** 0.06
11778 H 248.40778831312088 121.44872907797287 52.78603396070119 H 0.0 **** 0.06
11779 H 249.43150505315018 122.9038167928471 52.71262652033451 H 0.0 **** 0.06
11780 H 247.72020322623527 123.0426210071625 53.181739826839674 H 0.0 **** 0.06
11781 C 4.70104933705521 213.54640352934456 45.52012661885921 C 0.0 **** -0.24
11782 H 3.6875657073615997 213.82226710619983 45.23202460507409 H 0.0 **** 0.06
11783 H 5.219232503066351 213.11681526254205 44.66224975974524 H 0.0 **** 0.06
11784 H 4.663050811062689 212.8139914167903 46.32604917807252 H 0.0 **** 0.06
11785 H 5.235742531366569 214.43336074435626 45.86080192039417 H 0.0 **** 0.06
11786 C 111.98117339691822 97.67668095861319 143.24164968690567 C 0.0 **** -0.24
11787 H 112.25540782039968 97.19564714749478 142.30298333585213 H 0.0 **** 0.06
11788 H 112.88480891776774 97.92643125740355 143.79836344654123 H 0.0 **** 0.06
11789 H 111.36618465510446 96.99853301862828 143.83218738731463 H 0.0 **** 0.06
11790 H 111.42013006844627 98.58769879992352 143.03273954350428 H 0.0 **** 0.06
11791 C 143.9714162853976 192.634551196953 171.0746805434505 C 0.0 **** -0.24
11792 H 143.17106373507346 193.37474502764695 171.0711505631305 H 0.0 **** 0.06
11793 H 144.32764962341628 192.48099550953282 170.05615218024872 H 0.0 **** 0.06
11794 H 143.59378767331074 191.6934474376888 171.47487539340273 H 0.0 **** 0.06
11795 H 144.79240848798457 192.98997984738884 171.6981256941557 H 0.0 **** 0.06
11796 C 132.96761116518294 59.23926798040944 236.91732466410684 C 0.0 **** -0.24
11797 H 133.91015187462935 59.784475302269215 236.85899315139304 H 0.0 **** 0.06
11798 H 133.12741214089374 58.203867480002174 236.6156841071563 H 0.0 **** 0.06
11799 H 132.23849756826775 59.704221473445244 236.25294360495815 H 0.0 **** 0.06
11800 H 132.59543345838867 59.26712907907202 237.94183581129715 H 0.0 **** 0.06
11801 C 27.709655099852426 168.85779715352606 225.84251523554747 C 0.0 **** -0.24
11802 H 27.632228047446944 169.6291860556142 226.60829377795716 H 0.0 **** 0.06
11803 H 28.70787684608976 168.88081259407974 225.40496271634206 H 0.0 **** 0.06
11804 H 26.968228618325355 169.04150221854903 225.065431081151 H 0.0 **** 0.06
11805 H 27.531730579376372 167.88063037984128 226.29120836887233 H 0.0 **** 0.06
11806 C 216.6103858322436 131.4271859103078 34.13198774591862 C 0.0 **** -0.24
11807 H 216.89873821716967 131.10251854944428 33.13251710099716 H 0.0 **** 0.06
11808 H 215.6803299028789 131.99219925763512 34.07641394677499 H 0.0 **** 0.06
11809 H 217.39601003717047 132.0573078183491 34.54980536855068 H 0.0 **** 0.06
11810 H 216.46803000638207 130.5540261455231 34.76976703849405 H 0.0 **** 0.06
11811 C 138.15746609845266 118.62016375843373 22.259323657238397 C 0.0 **** -0.24
11812 H 137.20421372193275 118.72713706543408 22.776173905541498 H 0.0 **** 0.06
11813 H 138.47736196269744 119.59255478914048 21.882293277484038 H 0.0 **** 0.06
11814 H 138.0425804549856 117.92701796838554 21.426148544150905 H 0.0 **** 0.06
11815 H 138.90567840854297 118.2352597821374 22.95215829554887 H 0.0 **** 0.06
11816 C 83.52211147748409 94.7186229664095 162.89765842952036 C 0.0 **** -0.24
11817 H 82.51279192899574 94.31321044066448 162.83248715851826 H 0.0 **** 0.06
11818 H 84.02753764972013 94.59238237616799 161.93933526735697 H 0.0 **** 0.06
11819 H 84.07638029029835 94.19092626520381 163.67303629347475 H 0.0 **** 0.06
11820 H 83.47201891403438 95.77943952869188 163.14489825997015 H 0.0 **** 0.06
11821 C 173.78474181517026 140.4659754817247 59.03831211850067 C 0.0 **** -0.24
11822 H 174.42294353030147 140.6185693571298 59.90860301697953 H 0.0 **** 0.06
11823 H 173.58690319559727 139.4009392415046 58.91523384491475 H 0.0 **** 0.06
11824 H 174.28501921540757 140.84856336386758 58.14898956797177 H 0.0 **** 0.06
11825 H 172.84273988514383 140.99617761346508 59.18216149394834 H 0.0 **** 0.06
11826 C 33.34373040257917 51.428890328883696 201.51970752242295 C 0.0 **** -0.24
11827 H 33.206594326278505 52.2982167468402 202.1630113754523 H 0.0 **** 0.06
11828 H 34.284706884783205 50.938420240866805 201.76718865988363 H 0.0 **** 0.06
11829 H 33.36259827784795 51.74793937517184 200.47796318173317 H 0.0 **** 0.06
11830 H 32.518976699002124 50.73187240668294 201.6708363459926 H 0.0 **** 0.06
11831 C 1.6324819420964616 243.5292625771044 0.1957254666961603 C 0.0 **** -0.24
11832 H 1.9140376940653994 243.24016641141668 1.208398334430285 H 0.0 **** 0.06
11833 H 2.520941642393268 243.54548273925195 -0.43706980457255895 H 0.0 **** 0.06
11834 H 1.180605091528463 244.52090970523017 0.213609874813244 H 0.0 **** 0.06
11835 H 0.9162679117202117 242.8101546539031 -0.20160918455422916 H 0.0 **** 0.06
11836 C 105.13620014980992 136.25182674910906 84.55777402036807 C 0.0 **** -0.24
11837 H 106.14185289893302 136.61925241889142 84.7633792230892 H 0.0 **** 0.06
11838 H 104.92187271548863 135.3986322007485 85.20186127273786 H 0.0 **** 0.06
11839 H 105.06727726273019 135.94596529151863 83.51411844127875 H 0.0 **** 0.06
11840 H 104.4145360699313 137.04546870943153 84.75237609617449 H 0.0 **** 0.06
11841 C 3.2152397124282572 8.09069145915106 153.19480553021148 C 0.0 **** -0.24
11842 H 3.5426822000696347 7.102209596289313 153.51954790409536 H 0.0 **** 0.06
11843 H 2.290622521161339 7.997158959168772 152.6255294226948 H 0.0 **** 0.06
11844 H 3.984961073300525 8.539740064893735 152.56733605467377 H 0.0 **** 0.06
11845 H 3.0429719288100614 8.720358360997082 154.06700846573594 H 0.0 **** 0.06
11846 C 135.811404777178 41.26294439212343 163.56892710685534 C 0.0 **** -0.24
11847 H 135.29353401776606 40.304886522763766 163.61385554298212 H 0.0 **** 0.06
11848 H 136.44816256732716 41.37262473396761 164.44762462188996 H 0.0 **** 0.06
11849 H 135.07958696350724 42.07026544054169 163.54638872183182 H 0.0 **** 0.06
11850 H 136.4246242021672 41.3018198652602 162.6682394750271 H 0.0 **** 0.06
11851 C 8.510566620685324 190.61898823548526 160.07083596699331 C 0.0 **** -0.24
11852 H 7.427582705428023 190.65020548654724 160.1893639779984 H 0.0 **** 0.06
11853 H 8.831122107880844 191.4528692972745 159.4455079461457 H 0.0 **** 0.06
11854 H 8.797581071931646 189.67921249600093 159.5982083742861 H 0.0 **** 0.06
11855 H 8.985602399942778 190.6937448069665 161.0480611274013 H 0.0 **** 0.06
11856 C 110.4361528844776 17.300361615372452 226.2261104751549 C 0.0 **** -0.24
11857 H 110.4069332011172 16.673838064142245 225.33456854110017 H 0.0 **** 0.06
11858 H 111.12398603147412 16.866433706107244 226.95195253923467 H 0.0 **** 0.06
11859 H 109.43826118108834 17.35942966414794 226.66115609029146 H 0.0 **** 0.06
11860 H 110.77498850453443 18.299780238610396 225.9557932657822 H 0.0 **** 0.06
11861 C 10.628404826349453 8.8788501088478 115.51803616635755 C 0.0 **** -0.24
11862 H 11.608354499947808 8.868355024503344 115.0418197758151 H 0.0 **** 0.06
11863 H 10.74890696740161 8.802688402104266 116.59895068808214 H 0.0 **** 0.06
11864 H 10.039468430340065 8.035728815606873 115.15778074396206 H 0.0 **** 0.06
11865 H 10.117289599350755 9.810425297700817 115.2748624377387 H 0.0 **** 0.06
11866 C 247.74984652155598 181.7789488520713 74.42936362501328 C 0.0 **** -0.24
11867 H 248.5052318321608 180.99429274964555 74.37275606300713 H 0.0 **** 0.06
11868 H 246.97902430724432 181.59536814386752 73.68126216068873 H 0.0 **** 0.06
11869 H 248.21642666723181 182.74614383569994 74.24061138778734 H 0.0 **** 0.06
11870 H 247.30190868322745 181.77914840895943 75.4229516784421 H 0.0 **** 0.06
11871 C 55.26067081350379 118.71521640924564 14.36386934798746 C 0.0 **** -0.24
11872 H 56.344085899613106 118.69244772365772 14.489084864346395 H 0.0 **** 0.06
11873 H 54.85437338976374 119.58780286910778 14.875743205932082 H 0.0 **** 0.06
11874 H 54.827837116975616 117.80982181922369 14.789024841920096 H 0.0 **** 0.06
11875 H 55.01943209703899 118.77054545089001 13.302440054153465 H 0.0 **** 0.06
11876 C 174.7790046918339 96.65681754661938 218.55391857703057 C 0.0 **** -0.24
11877 H 175.08988863766962 96.10587305170827 219.44114396978495 H 0.0 **** 0.06
11878 H 175.65940610316386 96.96501643971106 217.98963463233395 H 0.0 **** 0.06
11879 H 174.21293884201265 97.53968975140316 218.85455076739 H 0.0 **** 0.06
11880 H 174.15269958265523 96.01860469581078 217.93074377445822 H 0.0 **** 0.06
11881 C 148.34476975036296 150.63227242159223 107.28881547200436 C 0.0 **** -0.24
11882 H 147.8291351037484 150.00347366884574 108.01404964130927 H 0.0 **** 0.06
11883 H 149.0107267859578 151.31891624346048 107.8115755117789 H 0.0 **** 0.06
11884 H 147.61304668506483 151.20245899155537 106.71611903916198 H 0.0 **** 0.06
11885 H 148.9268864848488 150.00580174884306 106.61329258687957 H 0.0 **** 0.06
11886 C 68.00961801469512 177.633241401404 115.81872573154365 C 0.0 **** -0.24
11887 H 68.49815005173411 177.03287572996248 116.58664961141665 H 0.0 **** 0.06
11888 H 68.75992867955722 178.2042949133051 115.27167055692084 H 0.0 **** 0.06
11889 H 67.30236572935294 178.3172754818001 116.28795078684436 H 0.0 **** 0.06
11890 H 67.47810279059462 176.9767758054616 115.1300298236223 H 0.0 **** 0.06
11891 C 209.89724482670957 199.71407419549908 96.02723490791948 C 0.0 **** -0.24
11892 H 209.33461576063934 200.6055977834278 95.7493000230829 H 0.0 **** 0.06
11893 H 210.5022097604137 199.3882456618997 95.18189725260572 H 0.0 **** 0.06
11894 H 209.20487456627285 198.9200583996722 96.30748285200082 H 0.0 **** 0.06
11895 H 210.54643595148323 199.94339501863573 96.87207300459076 H 0.0 **** 0.06
11896 C 118.92246960225603 46.956158819614544 63.526016504517145 C 0.0 **** -0.24
11897 H 118.01069680092226 47.433951455584975 63.168842715005354 H 0.0 **** 0.06
11898 H 118.8338841203392 46.75753437073442 64.59466823523488 H 0.0 **** 0.06
11899 H 119.77288432854598 47.61516205896952 63.34778321882257 H 0.0 **** 0.06
11900 H 119.07363483468805 46.01714789078551 62.99366782556942 H 0.0 **** 0.06
11901 C 156.2655741760378 151.63708206663702 216.84335206331087 C 0.0 **** -0.24
11902 H 157.22507364104987 151.46914377045647 216.3524935391414 H 0.0 **** 0.06
11903 H 156.19286492009476 150.99876192985118 217.72403097096495 H 0.0 **** 0.06
11904 H 155.4578523946801 151.39726603206037 216.15129832988117 H 0.0 **** 0.06
11905 H 156.18876718093847 152.6822042308839 217.1431401816055 H 0.0 **** 0.06
11906 C 174.12173934363375 127.35729881121355 66.66873341860526 C 0.0 **** -0.24
11907 H 175.15897025480444 127.22642807959082 66.36101527920627 H 0.0 **** 0.06
11908 H 173.4739631665064 126.76347847636666 66.02354584337826 H 0.0 **** 0.06
11909 H 173.8493143811573 128.4089054163086 66.58844804163715 H 0.0 **** 0.06
11910 H 174.0057062646101 127.02944080023323 67.70158046178767 H 0.0 **** 0.06
11911 C 90.47449448566525 137.74348903311082 91.79406255862375 C 0.0 **** -0.24
11912 H 91.23052063699242 138.01407921919943 92.53103540548616 H 0.0 **** 0.06
11913 H 90.01694761781175 138.64916960585649 91.39383243811918 H 0.0 **** 0.06
11914 H 89.70968782267991 137.12937329582647 92.26855722651811 H 0.0 **** 0.06
11915 H 90.940343689629 137.18291319473448 90.98433432882126 H 0.0 **** 0.06
11916 C 31.384109423303812 247.2754812829943 207.22219154195022 C 0.0 **** -0.24
11917 H 32.2913327671678 246.76199607257468 206.90308448084915 H 0.0 **** 0.06
11918 H 31.560950797836284 247.76493683256118 208.1793696611407 H 0.0 **** 0.06
11919 H 30.57512695863184 246.55233428152619 207.32765887914815 H 0.0 **** 0.06
11920 H 31.108350904361885 248.0222307513605 206.47748687475843 H 0.0 **** 0.06
11921 C 20.968988683384254 61.440303588386314 70.07507149396113 C 0.0 **** -0.24
11922 H 22.037962439275887 61.38649129205709 70.28128477007797 H 0.0 **** 0.06
11923 H 20.43691273244721 61.71487917877724 70.9860599678249 H 0.0 **** 0.06
11924 H 20.617548382269064 60.46824153614435 69.72848722626642 H 0.0 **** 0.06
11925 H 20.78470982425749 62.19017828448261 69.3057121422367 H 0.0 **** 0.06
11926 C 148.9038641286666 77.72765475033154 92.96253105600618 C 0.0 **** -0.24
11927 H 148.03307610475483 78.38342478557928 92.93804728269211 H 0.0 **** 0.06
11928 H 148.58657844325802 76.69646349408521 92.80520666980772 H 0.0 **** 0.06
11929 H 149.39688261759636 77.81383578756427 93.9304867166253 H 0.0 **** 0.06
11930 H 149.59806199219483 78.01781971364929 92.17315712671359 H 0.0 **** 0.06
11931 C 107.97250201380311 180.33173099671922 100.7939118153848 C 0.0 **** -0.24
11932 H 109.01532897502818 180.014157600379 100.77978240639891 H 0.0 **** 0.06
11933 H 107.40103464856148 179.6691989380006 101.44474044138076 H 0.0 **** 0.06
11934 H 107.56661138227363 180.28979145065057 99.78410618043713 H 0.0 **** 0.06
11935 H 107.90942137186653 181.3530045394067 101.16960684183238 H 0.0 **** 0.06
11936 C 88.34820290654469 169.03185148346753 180.34793399528726 C 0.0 **** -0.24
11937 H 88.85171670235016 168.89254677575119 181.30470388779685 H 0.0 **** 0.06
11938 H 87.9030202247913 170.02643162529424 180.31365142265494 H 0.0 **** 0.06
11939 H 87.56773540666805 168.27982288764207 180.23507109150012 H 0.0 **** 0.06
11940 H 89.07171348226325 168.928842732689 179.5385439633901 H 0.0 **** 0.06
11941 C 154.2233899419713 92.60374915011607 176.96331808259015 C 0.0 **** -0.24
11942 H 154.86136367145446 91.82373768175566 177.3788697627181 H 0.0 **** 0.06
11943 H 154.71496511398604 93.57103731179399 177.07343186190622 H 0.0 **** 0.06
11944 H 153.2726451547603 92.61653304246101 177.49553090018708 H 0.0 **** 0.06
11945 H 154.04687480021525 92.40396296442071 175.90735954434615 H 0.0 **** 0.06
11946 C 87.43946433967761 60.086897724184894 126.38899888725553 C 0.0 **** -0.24
11947 H 87.21584797515351 59.864238323607196 125.34545344672955 H 0.0 **** 0.06
11948 H 88.32482819852731 59.529804486945125 126.69620164817835 H 0.0 **** 0.06
11949 H 86.59258624683565 59.79794370504112 127.01085870502897 H 0.0 **** 0.06
11950 H 87.62407023539225 61.15556050418169 126.50036359912787 H 0.0 **** 0.06
11951 C 127.16836795112093 224.96540580687795 177.8945948925939 C 0.0 **** -0.24
11952 H 127.52146085722524 225.66452844215644 178.65296255678547 H 0.0 **** 0.06
11953 H 126.47587930550716 225.47698592566346 177.22453829234684 H 0.0 **** 0.06
11954 H 126.65837742106152 224.1324652581811 178.37798941600605 H 0.0 **** 0.06
11955 H 128.01687621550371 224.59064775129272 177.32334128793195 H 0.0 **** 0.06
11956 C 96.40583987674327 118.39536384866756 53.36210598517593 C 0.0 **** -0.24
11957 H 95.67323401842165 118.82327911873506 54.04671006855108 H 0.0 **** 0.06
11958 H 96.0305857870338 118.45962448960697 52.34126148322302 H 0.0 **** 0.06
11959 H 96.57741624727797 117.35025306935657 53.62105691374282 H 0.0 **** 0.06
11960 H 97.34237213181868 118.94768924296724 53.44153247064472 H 0.0 **** 0.06
11961 C 173.86230439229843 199.86743670891548 219.3013208496668 C 0.0 **** -0.24
11962 H 174.37340227156878 198.90744637257197 219.2270034011278 H 0.0 **** 0.06
11963 H 174.06728011380088 200.4572195288 218.40766389551297 H 0.0 **** 0.06
11964 H 174.22202541162682 200.40295662652878 220.18015290374478 H 0.0 **** 0.06
11965 H 172.7893933911107 199.70180291601258 219.38970061258587 H 0.0 **** 0.06
11966 C 7.107062533704564 205.94087949902377 203.36227117814795 C 0.0 **** -0.24
11967 H 7.111280480905762 205.07279925245246 202.7024708512128 H 0.0 **** 0.06
11968 H 7.442221057211356 206.81793324460776 202.8094031541914 H 0.0 **** 0.06
11969 H 7.777759281084187 205.76159023589895 204.20214842818373 H 0.0 **** 0.06
11970 H 6.096028720326771 206.1092734098902 203.7344427747842 H 0.0 **** 0.06
11971 C 166.78396837397574 106.12530291002787 181.7336777920259 C 0.0 **** -0.24
11972 H 167.55904400129785 105.75124504906151 181.06431461441963 H 0.0 **** 0.06
11973 H 167.05295824888532 105.89534515949612 182.764213788887 H 0.0 **** 0.06
11974 H 165.8340422182354 105.64834329408114 181.49035208078834 H 0.0 **** 0.06
11975 H 166.69071924178536 107.20411051284867 181.61309041968303 H 0.0 **** 0.06
11976 C 114.49475429656329 204.59844405042745 241.97195593795502 C 0.0 **** -0.24
11977 H 113.57066491066968 205.14751177228857 242.15285373537887 H 0.0 **** 0.06
11978 H 114.58658998868876 204.38327834289754 240.90679139445808 H 0.0 **** 0.06
11979 H 114.47652379186084 203.66284734508628 242.5305944787658 H 0.0 **** 0.06
11980 H 115.34474022077654 205.19951543130722 242.2964165702126 H 0.0 **** 0.06
11981 C 78.26410560865932 206.00556316077189 234.40529577529531 C 0.0 **** -0.24
11982 H 77.48012006500326 206.06858517765093 233.64987041619395 H 0.0 **** 0.06
11983 H 78.35778944509084 204.97457342021414 234.74637650213705 H 0.0 **** 0.06
11984 H 78.00633670640161 206.6455198895212 235.24940604735323 H 0.0 **** 0.06
11985 H 79.21015084341761 206.3345367455481 233.9765156995184 H 0.0 **** 0.06
11986 C 110.62055331936784 55.504058109814224 239.77111613673597 C 0.0 **** -0.24
11987 H 111.4291513582811 56.16833237646344 240.07713163529849 H 0.0 **** 0.06
11988 H 110.20412977743905 55.850578730409694 238.82525120837573 H 0.0 **** 0.06
11989 H 109.84160067440504 55.5046835590895 240.53284308518454 H 0.0 **** 0.06
11990 H 111.00876137388758 54.49227040966011 239.64833283640286 H 0.0 **** 0.06
11991 C 122.69155129465574 30.615268514365837 163.92114132296444 C 0.0 **** -0.24
11992 H 122.57568655343576 30.68805070759069 165.00219205083596 H 0.0 **** 0.06
11993 H 122.05315524391804 31.354423200774974 163.43748710942987 H 0.0 **** 0.06
11994 H 122.40660717244435 29.616094537233522 163.5911265004322 H 0.0 **** 0.06
11995 H 123.732423735076 30.803306602338964 163.65501574387304 H 0.0 **** 0.06
11996 C 221.35117888630697 31.130871120168322 41.540624294775654 C 0.0 **** -0.24
11997 H 222.38049097971393 31.35352925579177 41.2579432970181 H 0.0 **** 0.06
11998 H 221.34287892626242 30.3213918550301 42.27026461377781 H 0.0 **** 0.06
11999 H 220.78836980642805 30.830841437150156 40.6567998234207 H 0.0 **** 0.06
12000 H 220.89420253319096 32.01953855353268 41.97704769421975 H 0.0 **** 0.06
12001 C 36.28405131843522 11.339872545899624 90.41503716961245 C 0.0 **** -0.24
12002 H 35.577195047785864 10.709775685842331 89.8759836283869 H 0.0 **** 0.06
12003 H 35.748481092409634 12.164887089842594 90.88650415734821 H 0.0 **** 0.06
12004 H 37.022775196384174 11.73555348724139 89.71860900681739 H 0.0 **** 0.06
12005 H 36.7867969105437 10.748151013979466 91.18100719636851 H 0.0 **** 0.06
12006 C 40.84786255239996 135.40056993873776 59.60835147439107 C 0.0 **** -0.24
12007 H 39.86936298480947 135.75360295566503 59.28297192232307 H 0.0 **** 0.06
12008 H 41.05768777887933 134.4369859560736 59.142898080258135 H 0.0 **** 0.06
12009 H 40.85244174238257 135.2891717744664 60.691953354542505 H 0.0 **** 0.06
12010 H 41.610758699710686 136.12105896972577 59.31325217816547 H 0.0 **** 0.06
12011 C 111.32401855576924 235.63815340319076 116.560061288192 C 0.0 **** -0.24
12012 H 110.32096003413676 235.3953930525669 116.20992477333411 H 0.0 **** 0.06
12013 H 111.61986274520208 236.61122648688593 116.16901455092409 H 0.0 **** 0.06
12014 H 112.02352230898117 234.87798912120692 116.21076436146112 H 0.0 **** 0.06
12015 H 111.3317664018441 235.66609438365157 117.64938026592779 H 0.0 **** 0.06
12016 C 1.4868036565010812 44.68932737159602 95.6474977186445 C 0.0 **** -0.24
12017 H 2.2523040272816672 44.22120869067206 95.02858766648092 H 0.0 **** 0.06
12018 H 0.7048659619068474 45.100708285372235 95.00889631071482 H 0.0 **** 0.06
12019 H 1.9350082595454126 45.49072203191483 96.23488328338485 H 0.0 **** 0.06
12020 H 1.0562029499753578 43.94563886880823 96.31678614316087 H 0.0 **** 0.06
12021 C 200.7385653977277 67.96323717778694 28.67306473348748 C 0.0 **** -0.24
12022 H 201.58814304708244 68.42697380282101 28.171319046862436 H 0.0 **** 0.06
12023 H 200.79371713386763 66.88081257144776 28.55286557926584 H 0.0 **** 0.06
12024 H 199.81206963868516 68.33176957733966 28.232940834763568 H 0.0 **** 0.06
12025 H 200.761751798774 68.21344770424238 29.733726155775457 H 0.0 **** 0.06
12026 C 136.59688437795802 45.36750632249243 184.79331803032017 C 0.0 **** -0.24
12027 H 137.25929541093177 44.98188424017199 184.01840074378254 H 0.0 **** 0.06
12028 H 136.43804638184278 44.599563253519676 185.5505415807362 H 0.0 **** 0.06
12029 H 135.64051090995488 45.64271221314152 184.34919972187117 H 0.0 **** 0.06
12030 H 137.04918044764258 46.245804259106876 185.25426875693645 H 0.0 **** 0.06
12031 C 79.47186428242495 8.716291839596408 52.29539100898964 C 0.0 **** -0.24
12032 H 80.05895222325032 9.178951173086134 53.08813854187096 H 0.0 **** 0.06
12033 H 79.12534423452442 7.735962702687914 52.6240294406081 H 0.0 **** 0.06
12034 H 80.08931530879747 8.603970452475536 51.404385564745866 H 0.0 **** 0.06
12035 H 78.61273887509307 9.347053186409823 52.06458321479502 H 0.0 **** 0.06
12036 C 226.0755304761076 192.48682991539917 123.47307155120944 C 0.0 **** -0.24
12037 H 225.50050050755948 191.97516797613235 124.24454556867542 H 0.0 **** 0.06
12038 H 226.27173748226335 193.5125467531804 123.78646165208457 H 0.0 **** 0.06
12039 H 225.5095928460386 192.49340226281436 122.54186697324553 H 0.0 **** 0.06
12040 H 227.02109895842784 191.9660075837932 123.32055624639779 H 0.0 **** 0.06
12041 C 120.87550576255447 241.8376737889887 97.59399926289137 C 0.0 **** -0.24
12042 H 121.78996074809476 241.3657954028003 97.95109087670573 H 0.0 **** 0.06
12043 H 120.0396271287618 241.14826765086332 97.71341306700762 H 0.0 **** 0.06
12044 H 120.9876777437685 242.09575016551514 96.54129626943796 H 0.0 **** 0.06
12045 H 120.68513404250712 242.74281363568235 98.1705528454332 H 0.0 **** 0.06
12046 C 27.072980490129197 237.03922936174416 90.22621193935115 C 0.0 **** -0.24
12047 H 26.470053898627356 236.93295065720184 91.12789754356149 H 0.0 **** 0.06
12048 H 26.716692157235144 237.8919150162685 89.64882527469487 H 0.0 **** 0.06
12049 H 26.989290943614265 236.13297676447561 89.6257822051397 H 0.0 **** 0.06
12050 H 28.11597781101854 237.19663118053026 90.50220438818567 H 0.0 **** 0.06
12051 C 166.8468873565582 85.52157354037351 20.643044516194294 C 0.0 **** -0.24
12052 H 166.29129574600174 85.25350912815995 21.540767182785856 H 0.0 **** 0.06
12053 H 166.15038474041827 85.69978748947878 19.82388613034803 H 0.0 **** 0.06
12054 H 167.51983601217913 84.7067233169416 20.3762153785394 H 0.0 **** 0.06
12055 H 167.4273218636798 86.42535260136091 20.83060988799147 H 0.0 **** 0.06
12056 C 149.1138378410009 111.92322759273313 39.86223781104172 C 0.0 **** -0.24
12057 H 148.24060956300838 112.07891185627025 39.229102478739065 H 0.0 **** 0.06
12058 H 149.29623199440198 110.85453166287496 39.97335463106637 H 0.0 **** 0.06
12059 H 148.93443005031466 112.36544255465955 40.84287604897892 H 0.0 **** 0.06
12060 H 149.98348083501273 112.39429248284463 39.40437265776208 H 0.0 **** 0.06
12061 C 64.13215484535101 6.854320125896052 94.8664687742783 C 0.0 **** -0.24
12062 H 63.52434502365372 6.811457731679454 93.96289166016251 H 0.0 **** 0.06
12063 H 65.15952368991182 6.576293482760818 94.62633748762354 H 0.0 **** 0.06
12064 H 63.73140485002955 6.161818367790175 95.60691683352317 H 0.0 **** 0.06
12065 H 64.11366368414559 7.86785128606725 95.2680322693312 H 0.0 **** 0.06
12066 C 156.15536538445772 53.75335739440959 25.34305914025137 C 0.0 **** -0.24
12067 H 156.21086860396665 54.67384543323132 25.925020256962256 H 0.0 **** 0.06
12068 H 155.2065142243066 53.719218765042 24.807816580645095 H 0.0 **** 0.06
12069 H 156.22766695341315 52.89566941953245 26.011251015742772 H 0.0 **** 0.06
12070 H 156.97733045865235 53.72668648343887 24.627708423472512 H 0.0 **** 0.06
12071 C 28.3186192787894 224.90993284098636 97.72162129718382 C 0.0 **** -0.24
12072 H 28.153215823047034 224.0009751852263 98.2985738339622 H 0.0 **** 0.06
12073 H 28.964667678800097 224.68854804813992 96.87181201746137 H 0.0 **** 0.06
12074 H 28.792623592205985 225.66098455419584 98.35408458504068 H 0.0 **** 0.06
12075 H 27.36201749507144 225.29049034801957 97.36125121436243 H 0.0 **** 0.06
12076 C 169.5080457017652 6.339909673985957 115.50411823914973 C 0.0 **** -0.24
12077 H 169.9065293590667 6.20133889995995 114.49939366083444 H 0.0 **** 0.06
12078 H 169.90465735873445 5.56570918925776 116.16220971326865 H 0.0 **** 0.06
12079 H 168.42083159754117 6.273207560665838 115.47626360758366 H 0.0 **** 0.06
12080 H 169.80224975117255 7.320566771329553 115.8791065205352 H 0.0 **** 0.06
12081 C 104.85585237297155 201.35725355730338 133.13296280426573 C 0.0 **** -0.24
12082 H 104.58308454168429 201.44919655231172 134.18416057951933 H 0.0 **** 0.06
12083 H 105.25145215890817 200.35741418880832 132.94656901931387 H 0.0 **** 0.06
12084 H 105.61631748912717 202.0996766722914 132.88829710020073 H 0.0 **** 0.06
12085 H 103.97452082415063 201.52169048533543 132.5130750997166 H 0.0 **** 0.06
12086 C 223.62639085254068 56.05678429391355 32.3024564622726 C 0.0 **** -0.24
12087 H 223.22247250667783 55.87546710421378 31.30613341158795 H 0.0 **** 0.06
12088 H 224.50388048208868 55.429686698397575 32.459460037752905 H 0.0 **** 0.06
12089 H 222.87015570309381 55.81795963539986 33.05047300870558 H 0.0 **** 0.06
12090 H 223.90905527189113 57.10646706017934 32.393585514356914 H 0.0 **** 0.06
12091 C 33.51553974466344 143.56994057918624 6.157194746800968 C 0.0 **** -0.24
12092 H 34.01244142126211 143.84432610845343 5.226625633456166 H 0.0 **** 0.06
12093 H 32.60467034055969 144.15899895211118 6.269945549465234 H 0.0 **** 0.06
12094 H 34.181929880210575 143.76767682650402 6.9962782494173155 H 0.0 **** 0.06
12095 H 33.262306499238676 142.50980216599703 6.135422260422047 H 0.0 **** 0.06
12096 C 222.18528501780918 168.1488210264355 127.17033633155955 C 0.0 **** -0.24
12097 H 221.26069035481203 167.91963392979895 126.64150881449973 H 0.0 **** 0.06
12098 H 223.034128002511 167.98513202026513 126.50675810605028 H 0.0 **** 0.06
12099 H 222.27499259264414 167.49916498315446 128.04154190730364 H 0.0 **** 0.06
12100 H 222.17104218011877 169.1892989742639 127.49283956887854 H 0.0 **** 0.06
12101 C 25.444523752995153 188.05249187508736 134.06707448541775 C 0.0 **** -0.24
12102 H 24.991824295338148 187.81228907095067 133.10547250159965 H 0.0 **** 0.06
12103 H 25.996557705839635 187.1865094476481 134.43455582504623 H 0.0 **** 0.06
12104 H 24.663841933647916 188.31562805036498 134.78097281271522 H 0.0 **** 0.06
12105 H 26.12651299926374 188.8935330625631 133.94655084823287 H 0.0 **** 0.06
12106 C 135.48951612493485 232.1430161650814 7.584394445752281 C 0.0 **** -0.24
12107 H 135.99565626860527 231.18212244610302 7.492345635154919 H 0.0 **** 0.06
12108 H 134.5770256763595 232.01855692435188 8.169930674984897 H 0.0 **** 0.06
12109 H 135.23607544585334 232.5174069693865 6.591829621001281 H 0.0 **** 0.06
12110 H 136.1479048498464 232.8540028013381 8.083653757475219 H 0.0 **** 0.06
12111 C 36.034019787456714 236.73276243922265 80.87137117477468 C 0.0 **** -0.24
12112 H 36.881872170871844 237.30420495025243 80.49287894635543 H 0.0 **** 0.06
12113 H 35.36857625524915 237.39615902072129 81.42605619740581 H 0.0 **** 0.06
12114 H 36.39236189143979 235.943089728693 81.5313200441453 H 0.0 **** 0.06
12115 H 35.492612158073584 236.29047312109512 80.03576929830078 H 0.0 **** 0.06
12116 C 129.71074452510487 206.8722336995042 201.0312686988912 C 0.0 **** -0.24
12117 H 129.26610878820705 206.1050849981222 200.39742368685936 H 0.0 **** 0.06
12118 H 129.80504148149524 206.49328195539692 202.04903548508207 H 0.0 **** 0.06
12119 H 129.07459840766842 207.75720763043313 201.02958775483498 H 0.0 **** 0.06
12120 H 130.69653905656403 207.13306507909715 200.64782940771556 H 0.0 **** 0.06
12121 C 221.1304396595812 76.76082947435543 124.78140073915256 C 0.0 **** -0.24
12122 H 221.50020690842553 76.7030458138509 123.75855139460518 H 0.0 **** 0.06
12123 H 220.16395851697936 76.25997044970455 124.84692186961018 H 0.0 **** 0.06
12124 H 221.0187855975071 77.8065470910075 125.06931845891509 H 0.0 **** 0.06
12125 H 221.83863818682522 76.27291260935536 125.45132353384795 H 0.0 **** 0.06
12126 C 217.39562802451601 107.2714841606741 58.68289390315786 C 0.0 **** -0.24
12127 H 216.51225386217519 107.0035869937754 58.10349010298742 H 0.0 **** 0.06
12128 H 217.48532254727655 108.35738971677853 58.72780042896258 H 0.0 **** 0.06
12129 H 218.28211947558788 106.85270311422681 58.20684673211409 H 0.0 **** 0.06
12130 H 217.30235056356224 106.87268732668392 59.692665145802124 H 0.0 **** 0.06
12131 C 7.017393730850046 97.87155769183576 132.39704610740895 C 0.0 **** -0.24
12132 H 7.887768138060892 98.2070110899866 132.95931113360973 H 0.0 **** 0.06
12133 H 6.189104043201581 98.56245530402228 132.5624313476739 H 0.0 **** 0.06
12134 H 6.73099042619458 96.87464660823287 132.73196551087042 H 0.0 **** 0.06
12135 H 7.259485543709104 97.84220971272879 131.3346583158453 H 0.0 **** 0.06
12136 C 164.40169745461512 23.119649727708378 45.88315202717891 C 0.0 **** -0.24
12137 H 165.41354003780168 22.862399394873904 45.568251356313425 H 0.0 **** 0.06
12138 H 163.69879079060766 22.86614022883103 45.0900904174477 H 0.0 **** 0.06
12139 H 164.34764522725538 24.18840247827299 46.090438023128314 H 0.0 **** 0.06
12140 H 164.14945610370742 22.56150801140066 46.78524110390603 H 0.0 **** 0.06
12141 C 190.8216302168564 34.90784656275579 125.968573380366 C 0.0 **** -0.24
12142 H 191.64110607513993 34.204219662681865 125.82288511782966 H 0.0 **** 0.06
12143 H 191.217556855911 35.922239034739206 126.01521645702618 H 0.0 **** 0.06
12144 H 190.30509356516558 34.67535797228501 126.90006064059682 H 0.0 **** 0.06
12145 H 190.12246618486475 34.82714629974254 125.13632840938325 H 0.0 **** 0.06
12146 C 224.23956875602914 36.66884849349793 150.92044472321626 C 0.0 **** -0.24
12147 H 224.69777281882713 37.17962958657995 150.07357443786762 H 0.0 **** 0.06
12148 H 223.95060240366612 37.402009586559416 151.67411165032044 H 0.0 **** 0.06
12149 H 224.95328858154676 35.96625892871276 151.35036736838074 H 0.0 **** 0.06
12150 H 223.35512458932396 36.12740357862708 150.58239072664102 H 0.0 **** 0.06
12151 C 184.76840292368325 172.4920473788649 81.19894626820431 C 0.0 **** -0.24
12152 H 184.79471634987283 171.42851541496094 81.43839134412278 H 0.0 **** 0.06
12153 H 184.39116559535051 172.62638270232793 80.18453185556123 H 0.0 **** 0.06
12154 H 185.77438878282712 172.90529721921246 81.27104057117648 H 0.0 **** 0.06
12155 H 184.11254655998664 173.006158713424 81.90181648285986 H 0.0 **** 0.06
12156 C 211.8118864070447 140.18883532211404 67.57506722392114 C 0.0 **** -0.24
12157 H 211.02342429016778 140.59848483452268 66.94450213885776 H 0.0 **** 0.06
12158 H 212.16399770575435 139.24762327247782 67.15070876941397 H 0.0 **** 0.06
12159 H 211.42099588386213 140.01181786632995 68.57708767730443 H 0.0 **** 0.06
12160 H 212.63947407855858 140.89589127378684 67.62637112215705 H 0.0 **** 0.06
12161 C 142.17375571600945 226.07159281435673 156.4557997445625 C 0.0 **** -0.24
12162 H 142.69091987324106 225.1173932417548 156.55294382447013 H 0.0 **** 0.06
12163 H 141.34331649744288 225.96471580351408 155.75711126696265 H 0.0 **** 0.06
12164 H 142.86814019749932 226.82421584277506 156.0819731263328 H 0.0 **** 0.06
12165 H 141.79330800470808 226.38031422554005 157.42882758893768 H 0.0 **** 0.06
12166 C 129.2222128349361 53.35979743145069 15.214701991017648 C 0.0 **** -0.24
12167 H 129.9183227010333 54.177471957663926 15.027008103657238 H 0.0 **** 0.06
12168 H 128.63882478234024 53.57692420473282 16.109689654186738 H 0.0 **** 0.06
12169 H 129.77906625312383 52.434062603904124 15.358085616888076 H 0.0 **** 0.06
12170 H 128.55141945728857 53.25176889731537 14.36148709191842 H 0.0 **** 0.06
12171 C 97.33685475015412 38.83723762416962 15.387909888663856 C 0.0 **** -0.24
12172 H 98.23642390521101 38.35332350966691 15.005894121847817 H 0.0 **** 0.06
12173 H 96.51360291966157 38.67317821854647 14.692790832956462 H 0.0 **** 0.06
12174 H 97.51808423160819 39.90647694721913 15.492636696299783 H 0.0 **** 0.06
12175 H 97.08253064375444 38.415312837631845 16.35989357481465 H 0.0 **** 0.06
12176 C 179.22045121371528 16.75323394190704 133.9588464626503 C 0.0 **** -0.24
12177 H 180.055782453192 17.377220756881243 134.27639133015748 H 0.0 **** 0.06
12178 H 179.4789980656875 16.24414428146511 133.03071026266696 H 0.0 **** 0.06
12179 H 178.34104914441338 17.377387187506827 133.7992053073364 H 0.0 **** 0.06
12180 H 179.00601746127592 16.013789604230354 134.73103932423965 H 0.0 **** 0.06
12181 C 31.588247297985774 204.33357237873915 93.11198272427089 C 0.0 **** -0.24
12182 H 32.363166371877725 205.06097909275806 93.35310814195188 H 0.0 **** 0.06
12183 H 30.60964255949399 204.8114276945411 93.17455787745183 H 0.0 **** 0.06
12184 H 31.634787879926904 203.50572765488366 93.81922783909275 H 0.0 **** 0.06
12185 H 31.745709445518273 203.9574988187654 92.10134336529359 H 0.0 **** 0.06
12186 C 113.14208548502259 109.30191010858798 203.8884711272903 C 0.0 **** -0.24
12187 H 113.9050869426093 109.66578909802752 204.57752949801298 H 0.0 **** 0.06
12188 H 112.16163208689957 109.38341344889758 204.35793668608156 H 0.0 **** 0.06
12189 H 113.3421015237478 108.25943647077264 203.64220732369824 H 0.0 **** 0.06
12190 H 113.16073393948597 109.9014892411682 202.97829440293873 H 0.0 **** 0.06
12191 C 13.057630975271593 20.717127455870894 204.9690229876123 C 0.0 **** -0.24
12192 H 13.11462496155309 21.67001198964799 204.4429010252538 H 0.0 **** 0.06
12193 H 14.023680239427478 20.21628767867125 204.91782833635588 H 0.0 **** 0.06
12194 H 12.297213583279657 20.0907299699265 204.50260670455668 H 0.0 **** 0.06
12195 H 12.793973734816134 20.893343993707305 206.01207579765162 H 0.0 **** 0.06
12196 C 123.71001608540294 156.18755180102897 238.83462318368998 C 0.0 **** -0.24
12197 H 124.61704400341975 155.78077960527764 238.38858025283707 H 0.0 **** 0.06
12198 H 123.97288059508773 156.80585194647847 239.6930943546095 H 0.0 **** 0.06
12199 H 123.06725551594042 155.36909224876115 239.16077712475237 H 0.0 **** 0.06
12200 H 123.18256538288696 156.7920045042049 238.09770036501712 H 0.0 **** 0.06
12201 C 49.445721848253044 239.2647834703012 198.1891754589238 C 0.0 **** -0.24
12202 H 49.19060122149094 239.97341328890462 197.4009059491769 H 0.0 **** 0.06
12203 H 49.74480201275034 239.81074132441748 199.08459807280636 H 0.0 **** 0.06
12204 H 50.26912918210596 238.63216087065416 197.8562796988682 H 0.0 **** 0.06
12205 H 48.57813912213092 238.64346475936165 198.41418624562687 H 0.0 **** 0.06
12206 C 103.38137813836582 169.98939248605424 19.948820762884594 C 0.0 **** -0.24
12207 H 102.35240052025935 170.3370455739273 19.854021151811224 H 0.0 **** 0.06
12208 H 104.0572928119249 170.84512935479555 19.923634438468156 H 0.0 **** 0.06
12209 H 103.61518555180115 169.31730783797877 19.12393296709135 H 0.0 **** 0.06
12210 H 103.50031426123368 169.4602621632511 20.894103717957165 H 0.0 **** 0.06
12211 C 169.58650357759964 180.63791393701166 152.50133279410886 C 0.0 **** -0.24
12212 H 169.2303287981667 181.66606537094395 152.43887703330972 H 0.0 **** 0.06
12213 H 169.2652367983084 180.19989039497403 153.44647278626292 H 0.0 **** 0.06
12214 H 170.67520721281343 180.62767325318748 152.44718397911274 H 0.0 **** 0.06
12215 H 169.17603502484639 180.06042004850931 151.67407894687625 H 0.0 **** 0.06
12216 C 48.344000867236474 77.05845454173482 95.65160352440623 C 0.0 **** -0.24
12217 H 48.94444111524362 76.19031981086454 95.92257614647744 H 0.0 **** 0.06
12218 H 48.91595083817842 77.7005171863128 94.98217888012661 H 0.0 **** 0.06
12219 H 48.08122151782234 77.6135413622184 96.55216901629282 H 0.0 **** 0.06
12220 H 47.43343235978338 76.72855162681873 95.1500323499358 H 0.0 **** 0.06
12221 C 123.42204086359183 68.95046086346468 226.54608612016813 C 0.0 **** -0.24
12222 H 123.66412457003005 69.20091883248995 227.57910299192724 H 0.0 **** 0.06
12223 H 122.35461963380348 69.0958002905856 226.37841995408874 H 0.0 **** 0.06
12224 H 123.68157962309542 67.9092759352655 226.3541300097559 H 0.0 **** 0.06
12225 H 123.98718518818353 69.59559619814738 225.8739195824005 H 0.0 **** 0.06
12226 C 117.23398414930531 80.63116787973914 33.809643873612245 C 0.0 **** -0.24
12227 H 116.4729454677057 79.88168274774057 34.02703000858732 H 0.0 **** 0.06
12228 H 118.1762175079856 80.33732625949631 34.27189160621991 H 0.0 **** 0.06
12229 H 116.9178572802582 81.59567492732126 34.207875632342805 H 0.0 **** 0.06
12230 H 117.36727436679021 80.71142767352893 32.731298547616476 H 0.0 **** 0.06
12231 C 98.92077259487814 235.13160850067374 216.9809433269702 C 0.0 **** -0.24
12232 H 98.09072550848435 234.60698224905403 216.50580259232993 H 0.0 **** 0.06
12233 H 98.65918524867385 235.36477652762585 218.01349129623082 H 0.0 **** 0.06
12234 H 99.12241683194875 236.05592642706293 216.43888747290185 H 0.0 **** 0.06
12235 H 99.80772499309745 234.4981017734019 216.9637607522614 H 0.0 **** 0.06
12236 C 176.8070659625552 165.40554306625728 76.80605684488438 C 0.0 **** -0.24
12237 H 176.23272796868451 166.31194893373674 76.61524060145601 H 0.0 **** 0.06
12238 H 177.51436080011933 165.24626889870183 75.99135424040577 H 0.0 **** 0.06
12239 H 176.13032197968153 164.553463371198 76.87155757778402 H 0.0 **** 0.06
12240 H 177.35078575448637 165.51149909216076 77.74408011979648 H 0.0 **** 0.06
12241 C 144.36961685374152 53.326720926644285 33.87876823262029 C 0.0 **** -0.24
12242 H 144.60918631102118 53.398357241820435 32.81730212690941 H 0.0 **** 0.06
12243 H 144.16100784252282 52.288020588740466 34.13357884886186 H 0.0 **** 0.06
12244 H 143.4931280538151 53.938300807826664 34.093947242026275 H 0.0 **** 0.06
12245 H 145.21512541077115 53.68383713623061 34.46687780040074 H 0.0 **** 0.06
12246 C 163.42760224361422 142.08597716933753 56.90135248955724 C 0.0 **** -0.24
12247 H 162.73733061298515 142.5592920398588 56.20275411951846 H 0.0 **** 0.06
12248 H 164.45208153909653 142.25453679540493 56.57019030855861 H 0.0 **** 0.06
12249 H 163.22814664367132 141.01438043267115 56.9376633626575 H 0.0 **** 0.06
12250 H 163.29068776286437 142.51460851426944 57.89443615664359 H 0.0 **** 0.06
12251 C 130.50993501427925 86.58926219021942 187.33268438056945 C 0.0 **** -0.24
12252 H 130.98171836093638 85.96838973742788 186.57092691095454 H 0.0 **** 0.06
12253 H 130.77252224719902 87.63410681920953 187.1617597403955 H 0.0 **** 0.06
12254 H 130.85936553524792 86.2826608771982 188.3183651152579 H 0.0 **** 0.06
12255 H 129.42750063728215 86.47251744206241 187.27803043231444 H 0.0 **** 0.06
12256 C 17.64066903551064 53.794637813510576 123.71826538707538 C 0.0 **** -0.24
12257 H 17.10815077768528 54.6995582404152 124.01127033091245 H 0.0 **** 0.06
12258 H 17.036184667282882 52.9212978244602 123.96319084766444 H 0.0 **** 0.06
12259 H 18.588805552228166 53.74158630412788 124.25279064012912 H 0.0 **** 0.06
12260 H 17.82958139476952 53.81660449503684 122.64448600335885 H 0.0 **** 0.06
12261 C 240.45754434617993 99.16199078642126 43.20751327233029 C 0.0 **** -0.24
12262 H 240.19783460035262 98.46204502490383 44.00178989248943 H 0.0 **** 0.06
12263 H 240.01262729146177 100.13435554992168 43.421003691637054 H 0.0 **** 0.06
12264 H 240.0770009510064 98.7900178418684 42.255846613668325 H 0.0 **** 0.06
12265 H 241.541369754986 99.2622016900007 43.15054112343594 H 0.0 **** 0.06
12266 C 245.44702518422014 77.7058673901468 165.57719964108952 C 0.0 **** -0.24
12267 H 246.47642417174714 77.73726462870897 165.21976501781864 H 0.0 **** 0.06
12268 H 245.2889597918262 76.79224368822551 166.1490419431081 H 0.0 **** 0.06
12269 H 244.7672017954655 77.72411483522475 164.72439264289721 H 0.0 **** 0.06
12270 H 245.25609125239941 78.57101024768917 166.2120898976774 H 0.0 **** 0.06
12271 C 140.00471091671295 239.79591687255672 56.796043836658754 C 0.0 **** -0.24
12272 H 140.66375614464553 239.01144773453504 57.16695503943262 H 0.0 **** 0.06
12273 H 140.28175548611205 240.7472698591521 57.24964648815339 H 0.0 **** 0.06
12274 H 138.9732619890873 239.55581154619335 57.054618997662004 H 0.0 **** 0.06
12275 H 140.10064981025906 239.86807909435555 55.71221870265188 H 0.0 **** 0.06
12276 C 178.35036242111522 241.32498871904002 201.35112196786423 C 0.0 **** -0.24
12277 H 178.9989498527603 241.55903928872348 200.50654381886034 H 0.0 **** 0.06
12278 H 178.95039172814325 240.9346375520509 202.1731659854235 H 0.0 **** 0.06
12279 H 177.61591431105725 240.57791957409947 201.04957389736705 H 0.0 **** 0.06
12280 H 177.83628529996165 242.23035398248342 201.67419939608823 H 0.0 **** 0.06
12281 C 236.2356442293062 79.96572588319216 233.84626215975683 C 0.0 **** -0.24
12282 H 236.457984222699 79.04813287109204 233.30103416504875 H 0.0 **** 0.06
12283 H 235.28602439193634 79.85498359814389 234.37025346193323 H 0.0 **** 0.06
12284 H 236.16920403498688 80.79718754889984 233.1454913301507 H 0.0 **** 0.06
12285 H 237.02931772009902 80.16038682051109 234.56795051620014 H 0.0 **** 0.06
12286 C 156.30921726149145 66.39229721748038 188.50123516144825 C 0.0 **** -0.24
12287 H 157.33154962044438 66.54971197841544 188.16000987936343 H 0.0 **** 0.06
12288 H 155.79541125758377 65.72142101079336 187.81143729820604 H 0.0 **** 0.06
12289 H 155.7871954035744 67.34844280524473 188.53521106024095 H 0.0 **** 0.06
12290 H 156.3226435789586 65.9492915898783 189.4969069517417 H 0.0 **** 0.06
12291 C 179.3746603049773 98.39209547066878 33.381124609688484 C 0.0 **** -0.24
12292 H 178.4432778443873 97.93302601009063 33.050429120739494 H 0.0 **** 0.06
12293 H 179.51010302061258 98.21287778918128 34.44745985572803 H 0.0 **** 0.06
12294 H 179.3377241009112 99.46503423041105 33.19351144278602 H 0.0 **** 0.06
12295 H 180.20889708887 97.95563767450082 32.83067192081707 H 0.0 **** 0.06
12296 C 227.702171233015 171.44044607754353 221.03441096145326 C 0.0 **** -0.24
12297 H 228.06933079617733 170.81640131431163 221.84878038083252 H 0.0 **** 0.06
12298 H 227.2445020692765 172.34097662684752 221.44433441626498 H 0.0 **** 0.06
12299 H 226.96077343347434 170.88639200626295 220.45874703403126 H 0.0 **** 0.06
12300 H 228.53300906709705 171.7179761098743 220.38670645218335 H 0.0 **** 0.06
12301 C 15.315577531054004 30.25588571641478 114.57039513232593 C 0.0 **** -0.24
12302 H 15.044960400143623 29.199767979965742 114.57403785388598 H 0.0 **** 0.06
12303 H 16.383111448209917 30.35861057361862 114.76658002983075 H 0.0 **** 0.06
12304 H 14.751895824988608 30.77793887029506 115.34284318664837 H 0.0 **** 0.06
12305 H 15.082064294784885 30.686504687206906 113.59579498040344 H 0.0 **** 0.06
12306 C 179.9083969718985 45.55034975944169 5.999658455128866 C 0.0 **** -0.24
12307 H 179.89306561225692 46.40941069851064 6.670833415340866 H 0.0 **** 0.06
12308 H 179.39495803924612 44.71190312173297 6.470564252244031 H 0.0 **** 0.06
12309 H 180.94184854808583 45.272849493408714 5.790154233102982 H 0.0 **** 0.06
12310 H 179.40508309475933 45.808216395542416 5.067492421389005 H 0.0 **** 0.06
12311 C 54.15462395917473 234.11430656367452 114.83767459203506 C 0.0 **** -0.24
12312 H 53.29933139288528 234.4389806943843 114.24487284913445 H 0.0 **** 0.06
12313 H 54.86800666776182 234.93386119672465 114.92453012635517 H 0.0 **** 0.06
12314 H 54.63368520674683 233.26511270941455 114.34943725547782 H 0.0 **** 0.06
12315 H 53.81641096439674 233.81852361976246 115.83129826306913 H 0.0 **** 0.06
12316 C 161.09739475289638 203.2912757232025 198.63242920238687 C 0.0 **** -0.24
12317 H 160.90587997524312 202.2351237834855 198.82246535854617 H 0.0 **** 0.06
12318 H 161.4512971909619 203.7671202387683 199.54732244001232 H 0.0 **** 0.06
12319 H 160.17596150183607 203.77414630654727 198.30504816278847 H 0.0 **** 0.06
12320 H 161.85434312653268 203.3892168977542 197.8554702351421 H 0.0 **** 0.06
12321 C 73.13315545498523 139.65901168147738 192.1206982562196 C 0.0 **** -0.24
12322 H 74.1012280215657 139.20508068105013 191.9093887214844 H 0.0 **** 0.06
12323 H 73.22849245891422 140.33935300533827 192.96729976429708 H 0.0 **** 0.06
12324 H 72.41102296222442 138.87887073509611 192.3603862415425 H 0.0 **** 0.06
12325 H 72.79274852852339 140.21228970950872 191.24552335059508 H 0.0 **** 0.06
12326 C 238.37252580447011 79.08191111876553 52.79125754508192 C 0.0 **** -0.24
12327 H 239.26957248362893 78.82407960932693 52.22826221871925 H 0.0 **** 0.06
12328 H 238.61744024635607 79.15614272520165 53.85043559739526 H 0.0 **** 0.06
12329 H 237.61800469323816 78.30916049735933 52.64555945072955 H 0.0 **** 0.06
12330 H 237.98560837204994 80.03911821489689 52.43977631064011 H 0.0 **** 0.06
12331 C 119.14086984990865 235.8022654231739 103.360779924365 C 0.0 **** -0.24
12332 H 118.26946689893401 235.46736827202642 102.79630283535556 H 0.0 **** 0.06
12333 H 119.76380303468059 234.94342702166574 103.61082475460617 H 0.0 **** 0.06
12334 H 118.81130371277737 236.29144788677792 104.27766555102932 H 0.0 **** 0.06
12335 H 119.71446012522327 236.50559604591737 102.75918805624485 H 0.0 **** 0.06
12336 C 8.920883410741709 190.25646697248843 52.00048248745098 C 0.0 **** -0.24
12337 H 8.36549518906503 189.32213485581545 52.07754727131211 H 0.0 **** 0.06
12338 H 9.97635322567406 190.06945802930298 52.199732831754005 H 0.0 **** 0.06
12339 H 8.534239070730266 190.96965281923005 52.72759641176695 H 0.0 **** 0.06
12340 H 8.807574689848252 190.66471671998173 50.99564824382321 H 0.0 **** 0.06
12341 C 153.85156859768617 224.9541786432097 131.6626860534642 C 0.0 **** -0.24
12342 H 154.31549845439994 225.14838062430084 132.63020621179535 H 0.0 **** 0.06
12343 H 153.31962129245247 225.84682149854405 131.3304039644786 H 0.0 **** 0.06
12344 H 153.14893112876535 224.12653102473791 131.75660394469256 H 0.0 **** 0.06
12345 H 154.6216619622907 224.69781045987187 130.93591365280784 H 0.0 **** 0.06
12346 C 77.14087813874502 128.01155484986026 7.936026775980196 C 0.0 **** -0.24
12347 H 76.51684368213202 128.9050781605814 7.90463145959022 H 0.0 **** 0.06
12348 H 77.2742585612219 127.69742951725459 8.971167590647838 H 0.0 **** 0.06
12349 H 78.11244673868313 128.23192572406666 7.494625943313736 H 0.0 **** 0.06
12350 H 76.6580237231079 127.21227179535492 7.372681594609077 H 0.0 **** 0.06
12351 C 146.47510582881497 93.41853645039501 41.80481053095856 C 0.0 **** -0.24
12352 H 146.02824283092914 94.377747655017 41.54152379612094 H 0.0 **** 0.06
12353 H 146.98718836105257 93.50708999476029 42.76262435051058 H 0.0 **** 0.06
12354 H 147.18981992274092 93.12777339830112 41.034332634306395 H 0.0 **** 0.06
12355 H 145.69284347138512 92.66325927751458 41.87839424049265 H 0.0 **** 0.06
12356 C 93.7517396368099 89.28479428032881 157.95082607010337 C 0.0 **** -0.24
12357 H 92.71376484496653 89.26022343303495 158.28484581241037 H 0.0 **** 0.06
12358 H 93.98195087287829 88.36309203885605 157.41575472810905 H 0.0 **** 0.06
12359 H 94.40940127099424 89.37725347672637 158.81535024243794 H 0.0 **** 0.06
12360 H 93.89958120113735 90.13701768827895 157.2879545151395 H 0.0 **** 0.06
12361 C 119.85275778399648 233.14802023013047 7.809553292770531 C 0.0 **** -0.24
12362 H 118.96182066656198 232.53576142454122 7.665717314480887 H 0.0 **** 0.06
12363 H 119.55739985149637 234.184485381244 7.973943850165526 H 0.0 **** 0.06
12364 H 120.48291446767718 233.08471942164843 6.922774783414809 H 0.0 **** 0.06
12365 H 120.4060821022031 232.7860753383379 8.675808254112766 H 0.0 **** 0.06
12366 C 225.67058583473113 223.85467767166801 229.73023327170782 C 0.0 **** -0.24
12367 H 224.88513064105157 223.6365360745915 230.45531738581485 H 0.0 **** 0.06
12368 H 225.6134059832958 223.1403511431589 228.9083460207131 H 0.0 **** 0.06
12369 H 226.64312813417797 223.7757495496176 230.21442680832007 H 0.0 **** 0.06
12370 H 225.5363846636801 224.86481983839653 229.34425346565678 H 0.0 **** 0.06
12371 C 67.90820640808883 53.41416817046532 137.2100786930529 C 0.0 **** -0.24
12372 H 67.1829799369113 53.1827232089947 136.43065047063027 H 0.0 **** 0.06
12373 H 68.6869335467295 54.05993746215361 136.80211588629567 H 0.0 **** 0.06
12374 H 68.35742293198197 52.49004703884788 137.57433714729123 H 0.0 **** 0.06
12375 H 67.40717589599356 53.92357890835109 138.0331331831324 H 0.0 **** 0.06
12376 C 199.75086759916542 187.1386016012491 239.91196801526138 C 0.0 **** -0.24
12377 H 200.7568546465779 187.4588550155383 240.18291704919403 H 0.0 **** 0.06
12378 H 199.80545526582958 186.2034767432728 239.35286133979707 H 0.0 **** 0.06
12379 H 199.2803831171344 187.9039185853397 239.2949592375257 H 0.0 **** 0.06
12380 H 199.16131556771384 186.98762234731717 240.8159404875176 H 0.0 **** 0.06
12381 C 154.65232977447735 166.073964488552 78.9157493193712 C 0.0 **** -0.24
12382 H 154.88708978738137 166.21377697735267 79.97109418072645 H 0.0 **** 0.06
12383 H 155.52871275738124 166.31242653412363 78.31349830490191 H 0.0 **** 0.06
12384 H 153.82902582153608 166.730468054424 78.63651603801887 H 0.0 **** 0.06
12385 H 154.36410731169934 165.03644221531445 78.74303879357282 H 0.0 **** 0.06
12386 C 66.00559036603377 131.8317503211365 158.36192830622838 C 0.0 **** -0.24
12387 H 65.0242796411047 132.2099271638073 158.64806481827026 H 0.0 **** 0.06
12388 H 66.18126314568732 132.04021838898413 157.30664507094397 H 0.0 **** 0.06
12389 H 66.0446385241589 130.75576029654079 158.53288526366367 H 0.0 **** 0.06
12390 H 66.77274813835189 132.32262964167407 158.96164242503775 H 0.0 **** 0.06
12391 C 134.18389010772867 84.26892242825528 71.6321053119743 C 0.0 **** -0.24
12392 H 133.09313634888875 84.26678692755081 71.62292581781364 H 0.0 **** 0.06
12393 H 134.54041065801445 83.6445488685803 72.4514387762953 H 0.0 **** 0.06
12394 H 134.54286032058272 85.28920858516292 71.76783340393513 H 0.0 **** 0.06
12395 H 134.55510993449116 83.87580058755282 70.68575039651253 H 0.0 **** 0.06
12396 C 42.956198750834204 171.58150182761102 98.33154694566565 C 0.0 **** -0.24
12397 H 42.62512176443545 172.0807608428547 99.24242401660692 H 0.0 **** 0.06
12398 H 44.00630339403857 171.81529245644168 98.15066364444073 H 0.0 **** 0.06
12399 H 42.35614579460268 171.9265451675055 97.49006723489344 H 0.0 **** 0.06
12400 H 42.837704168805246 170.50405877208016 98.44456491427363 H 0.0 **** 0.06
12401 C 37.38259575208778 152.8375073477449 219.71931856833194 C 0.0 **** -0.24
12402 H 36.37407547806353 152.58672280966172 220.04744436312245 H 0.0 **** 0.06
12403 H 37.67080644836565 152.18105139997274 218.89635819078072 H 0.0 **** 0.06
12404 H 38.077606993026535 152.70738778341948 220.54836370284875 H 0.0 **** 0.06
12405 H 37.407235369317135 153.87414156908872 219.3822726420585 H 0.0 **** 0.06
12406 C 223.2333771632241 93.75672279445917 232.17208784905137 C 0.0 **** -0.24
12407 H 223.2935099723943 92.99214909069943 231.39753464492708 H 0.0 **** 0.06
12408 H 222.86223723983136 94.68517620957891 231.73694420359263 H 0.0 **** 0.06
12409 H 224.2237867538596 93.92414748087074 232.59483408719916 H 0.0 **** 0.06
12410 H 222.55327328154 93.42529071719403 232.95691907914306 H 0.0 **** 0.06
12411 C 16.621432594717618 178.0376720187234 48.49282457113105 C 0.0 **** -0.24
12412 H 16.79217070359445 177.07998692041815 48.00159314397946 H 0.0 **** 0.06
12413 H 16.204491325083126 178.74454498121943 47.77549747608964 H 0.0 **** 0.06
12414 H 17.566979312613256 178.42249417859506 48.87497490726918 H 0.0 **** 0.06
12415 H 15.923564783112937 177.90299375209457 49.31861984919455 H 0.0 **** 0.06
12416 C 12.288075438208068 167.03733181306762 117.65443602037709 C 0.0 **** -0.24
12417 H 11.490274091941103 167.53240511398178 118.20784545757294 H 0.0 **** 0.06
12418 H 12.049738827393725 165.9795728044666 117.53948335089802 H 0.0 **** 0.06
12419 H 13.226504018565421 167.14162129705085 118.20006784057676 H 0.0 **** 0.06
12420 H 12.386890859244247 167.49681385396408 116.67112054061357 H 0.0 **** 0.06
12421 C 23.622502841253123 49.77036637735765 155.8681582204508 C 0.0 **** -0.24
12422 H 24.492957667902516 49.30128666789588 156.32501068439686 H 0.0 **** 0.06
12423 H 23.33416170166656 50.646008441978324 156.45102694132405 H 0.0 **** 0.06
12424 H 22.796184680889624 49.06045731054758 155.8474706641755 H 0.0 **** 0.06
12425 H 23.865764295731154 50.07575889889249 154.85008658766787 H 0.0 **** 0.06
12426 C 166.0350190855931 152.49323611070693 204.52952322487374 C 0.0 **** -0.24
12427 H 166.1058197714212 151.7249358625813 203.76061065162224 H 0.0 **** 0.06
12428 H 164.99245427940875 152.78672722377232 204.65483949330144 H 0.0 **** 0.06
12429 H 166.62456569261732 153.36050545825614 204.2318988845733 H 0.0 **** 0.06
12430 H 166.41815368084406 152.0996894490894 205.47173312136005 H 0.0 **** 0.06
12431 C 9.921061848558068 194.82480078904436 144.76021628930877 C 0.0 **** -0.24
12432 H 9.077148307160698 194.70968377197408 145.4404130080224 H 0.0 **** 0.06
12433 H 9.787149765591366 195.72824075512 144.1638670904251 H 0.0 **** 0.06
12434 H 9.974743662391049 193.9587817797621 144.09990354894705 H 0.0 **** 0.06
12435 H 10.843303331597482 194.90163396347123 145.33588362086857 H 0.0 **** 0.06
12436 C 146.0480388809628 88.84446683134959 28.43106132273276 C 0.0 **** -0.24
12437 H 145.66222076597833 88.24601328193407 27.60543531428266 H 0.0 **** 0.06
12438 H 146.8001646544421 89.53794187281673 28.056429843066695 H 0.0 **** 0.06
12439 H 146.49709985510387 88.18807312555484 29.17659275447909 H 0.0 **** 0.06
12440 H 145.2309918562504 89.40447501846094 28.886355252392462 H 0.0 **** 0.06
12441 C 8.033456482833984 182.61293609520692 160.74476215391013 C 0.0 **** -0.24
12442 H 7.614912271223147 181.72790637668209 160.26553808376525 H 0.0 **** 0.06
12443 H 8.239383865216325 183.37180707333863 159.98938851896892 H 0.0 **** 0.06
12444 H 8.959621917890203 182.3460962137129 161.25394545594938 H 0.0 **** 0.06
12445 H 7.320514162775751 183.00516372049555 161.46998164274933 H 0.0 **** 0.06
12446 C 31.08294543327365 154.99080876269215 122.49366600351328 C 0.0 **** -0.24
12447 H 30.873563712201687 154.7571255994144 121.45004728092826 H 0.0 **** 0.06
12448 H 31.25064388911545 154.0665822220126 123.04637939724671 H 0.0 **** 0.06
12449 H 30.23353012888137 155.5225662971508 122.92340446175572 H 0.0 **** 0.06
12450 H 31.972776705065954 155.61724902155976 122.55427521813476 H 0.0 **** 0.06
12451 C 219.43661443971743 76.8507300441265 136.28230032510362 C 0.0 **** -0.24
12452 H 219.2731295546375 77.89297952337554 136.00636682838046 H 0.0 **** 0.06
12453 H 219.52257931649032 76.77143218886911 137.3654625694776 H 0.0 **** 0.06
12454 H 220.35346456123932 76.49109755756476 135.81615883381022 H 0.0 **** 0.06
12455 H 218.59483576955512 76.24911040439787 135.93975828919224 H 0.0 **** 0.06
12456 C 211.72754208394807 177.81878879064007 247.39685851996094 C 0.0 **** -0.24
12457 H 212.64060490635214 178.18383228182415 247.86571466840303 H 0.0 **** 0.06
12458 H 211.33719661444246 178.57968657292275 246.72057710357961 H 0.0 **** 0.06
12459 H 210.98592973888302 177.60140791642394 248.1663403367243 H 0.0 **** 0.06
12460 H 211.9456752506758 176.90960973060442 246.8358202541568 H 0.0 **** 0.06
12461 C 127.87789188107294 50.85763847110334 23.299479131979098 C 0.0 **** -0.24
12462 H 128.4908150591227 51.47803295040937 22.64609759660688 H 0.0 **** 0.06
12463 H 127.40792518329496 51.48240574606906 24.0587759913048 H 0.0 **** 0.06
12464 H 128.50544249372902 50.10843815115433 23.781868679389703 H 0.0 **** 0.06
12465 H 127.107271691477 50.36072447200381 22.7097320890919 H 0.0 **** 0.06
12466 C 34.666248994198526 208.43554917038466 121.30185554164035 C 0.0 **** -0.24
12467 H 35.50019169689705 209.13487248906662 121.3552973462468 H 0.0 **** 0.06
12468 H 35.04742718297973 207.42887833685043 121.1254537080417 H 0.0 **** 0.06
12469 H 34.003339728369795 208.72204105110896 120.48545412323261 H 0.0 **** 0.06
12470 H 34.11407147456055 208.45545517604745 122.24152852121443 H 0.0 **** 0.06
12471 C 117.00996744708209 61.682438655736576 114.5552948215356 C 0.0 **** -0.24
12472 H 117.76327516239459 61.39420008348503 115.28788786834633 H 0.0 **** 0.06
12473 H 117.42581934032194 62.43065538321497 113.8805144865099 H 0.0 **** 0.06
12474 H 116.14301272427781 62.09779233285673 115.07007964123557 H 0.0 **** 0.06
12475 H 116.70576582253713 60.8052288262125 113.98339459821779 H 0.0 **** 0.06
12476 C 205.94017781606027 175.15307106715767 225.433873171867 C 0.0 **** -0.24
12477 H 206.68459934191392 175.24432759078547 224.64324215629162 H 0.0 **** 0.06
12478 H 205.09288388710337 174.5719101236674 225.0698971766835 H 0.0 **** 0.06
12479 H 205.59978492549783 176.1462729545035 225.72906171032383 H 0.0 **** 0.06
12480 H 206.38368208822823 174.6518862724199 226.29450801646846 H 0.0 **** 0.06
12481 C 62.30782024479919 246.0121622996089 3.1717781934204083 C 0.0 **** -0.24
12482 H 61.77328901920376 245.1717557277618 3.614024422243176 H 0.0 **** 0.06
12483 H 62.45110028549249 245.83239363175522 2.1059059529040383 H 0.0 **** 0.06
12484 H 63.27897118224993 246.1199158321958 3.656208389384588 H 0.0 **** 0.06
12485 H 61.72928599069405 246.92497980838434 3.3119633444105574 H 0.0 **** 0.06
12486 C 95.45217875465883 227.2858639927669 128.85523980197178 C 0.0 **** -0.24
12487 H 95.88151379627746 226.67201465399407 129.64779641944446 H 0.0 **** 0.06
12488 H 96.24955245110013 227.8206136284595 128.3385352532545 H 0.0 **** 0.06
12489 H 94.7562920159524 228.00318871626155 129.28919999321496 H 0.0 **** 0.06
12490 H 94.92306982350689 226.64854751890738 128.1477166527464 H 0.0 **** 0.06
12491 C 128.45447262129426 62.129398717730766 74.84670512825559 C 0.0 **** -0.24
12492 H 129.30592603988623 62.128110500271845 74.16656765667372 H 0.0 **** 0.06
12493 H 128.01505470017315 63.12759437155265 74.8766035978746 H 0.0 **** 0.06
12494 H 128.78609339386477 61.84831432161536 75.84563494672886 H 0.0 **** 0.06
12495 H 127.70926185981926 61.41498398927038 74.49674929288469 H 0.0 **** 0.06
12496 C 148.76038347166974 216.27843651597294 80.87585793793502 C 0.0 **** -0.24
12497 H 148.0697540214375 216.94337475399732 80.356795633992 H 0.0 **** 0.06
12498 H 149.78445924489333 216.53293743810232 80.60216894773717 H 0.0 **** 0.06
12499 H 148.55403907369015 215.24614763123523 80.590720724394 H 0.0 **** 0.06
12500 H 148.63255613682657 216.39047004077025 81.95207084499785 H 0.0 **** 0.06
12501 C 121.53138039699161 247.35703359577047 5.461759235829518 C 0.0 **** -0.24
12502 H 122.07793216699193 246.5116160242385 5.043907753850505 H 0.0 **** 0.06
12503 H 121.10102123722442 247.07169182215054 6.422034009659299 H 0.0 **** 0.06
12504 H 120.73345388151435 247.64733622998727 4.777656733382813 H 0.0 **** 0.06
12505 H 122.21129917069297 248.19638484907364 5.602743241711494 H 0.0 **** 0.06
12506 C 209.156142959659 154.65743897214108 158.90805610788718 C 0.0 **** -0.24
12507 H 210.20694552725527 154.94442188615935 158.94444755989977 H 0.0 **** 0.06
12508 H 208.7246204645115 154.98148553459887 157.96133031611802 H 0.0 **** 0.06
12509 H 208.62186687416707 155.1300615748351 159.73300854365866 H 0.0 **** 0.06
12510 H 209.07243590097414 153.57458112321802 158.99473694001583 H 0.0 **** 0.06
12511 C 239.38753561283653 234.91167717426598 221.1450299268297 C 0.0 **** -0.24
12512 H 239.0064185173578 235.21481354727513 222.12063265136769 H 0.0 **** 0.06
12513 H 240.47453861241735 234.99139893773986 221.13988337724408 H 0.0 **** 0.06
12514 H 238.97170081824413 235.56280948963732 220.3756998891044 H 0.0 **** 0.06
12515 H 239.09676586625713 233.8806969195674 220.94600674232913 H 0.0 **** 0.06
12516 C 242.25103648371152 141.93888455835642 21.818897361311457 C 0.0 **** -0.24
12517 H 241.65503406346716 142.33426282064934 22.64143107724189 H 0.0 **** 0.06
12518 H 242.52838021423014 142.75223051970133 21.14739949563389 H 0.0 **** 0.06
12519 H 241.66822598568342 141.19837566092795 21.27164782093834 H 0.0 **** 0.06
12520 H 243.1518676083317 141.4718621664409 22.214698980220447 H 0.0 **** 0.06
12521 C 54.30222304692202 16.736724614954213 55.448282377018955 C 0.0 **** -0.24
12522 H 55.204591099306015 16.335304652430708 54.98713003729068 H 0.0 **** 0.06
12523 H 53.8993178371544 16.008147808482903 56.15137397286341 H 0.0 **** 0.06
12524 H 53.56197517184518 16.944763434186143 54.67572396362701 H 0.0 **** 0.06
12525 H 54.54390103095989 17.658691548954764 55.97662061009842 H 0.0 **** 0.06
12526 C 27.371804760781544 221.3224395808734 246.86695142527364 C 0.0 **** -0.24
12527 H 28.00262480522747 221.9665351590296 246.25341777694922 H 0.0 **** 0.06
12528 H 27.81434912987703 221.21700544636843 247.85720527579787 H 0.0 **** 0.06
12529 H 27.28963554200054 220.34267375148127 246.39886629878538 H 0.0 **** 0.06
12530 H 26.379581368820453 221.76630001448368 246.9577271990755 H 0.0 **** 0.06
12531 C 60.20277607390983 86.48224990320455 32.90833501921627 C 0.0 **** -0.24
12532 H 60.40884954693411 87.55059877884176 32.96672991924417 H 0.0 **** 0.06
12533 H 59.361709864983965 86.23927625923218 33.55868647964742 H 0.0 **** 0.06
12534 H 61.08301090060377 85.92419065547642 33.22709683079317 H 0.0 **** 0.06
12535 H 59.95634621050266 86.21680089757143 31.880504920299813 H 0.0 **** 0.06
12536 C 41.536362535793984 239.31322018988857 34.508977644318435 C 0.0 **** -0.24
12537 H 41.740065647587215 239.45717833422424 35.57002508122929 H 0.0 **** 0.06
12538 H 40.9553508709179 240.1559051850178 34.133483278153804 H 0.0 **** 0.06
12539 H 40.97247422191529 238.39129455743506 34.369150391695385 H 0.0 **** 0.06
12540 H 42.478949710145685 239.24948649449902 33.96356676946945 H 0.0 **** 0.06
12541 C 11.801450565436411 53.56720276778924 6.770695301297863 C 0.0 **** -0.24
12542 H 11.056563762210843 54.02102752614687 6.116176150390061 H 0.0 **** 0.06
12543 H 12.539259357537404 54.31749902611895 7.054431582489357 H 0.0 **** 0.06
12544 H 12.296036615662956 52.75028042036175 6.246363274283141 H 0.0 **** 0.06
12545 H 11.311380414505678 53.18190677551344 7.664907141893337 H 0.0 **** 0.06
12546 C 94.93229579556348 78.46098438544703 228.1489708456636 C 0.0 **** -0.24
12547 H 94.61118239666254 78.89544684804494 229.0956012495199 H 0.0 **** 0.06
12548 H 94.0566461487393 78.17803608085757 227.56459466194832 H 0.0 **** 0.06
12549 H 95.54236742301399 77.57903918487733 228.34214909011035 H 0.0 **** 0.06
12550 H 95.51764931793198 79.19410052643059 227.59351918096496 H 0.0 **** 0.06
12551 C 34.13430478014541 88.88786714809905 148.27523509605177 C 0.0 **** -0.24
12552 H 33.38502483338807 89.07330903289159 149.0452373322471 H 0.0 **** 0.06
12553 H 35.069062847237916 88.58125627034991 148.7449559682747 H 0.0 **** 0.06
12554 H 34.29657595410366 89.79949395098544 147.70032883798416 H 0.0 **** 0.06
12555 H 33.78380931698389 88.09761235351934 147.61160880395383 H 0.0 **** 0.06
12556 C 106.26987102732764 3.4123877438844232 68.2535019859076 C 0.0 **** -0.24
12557 H 105.1889630446621 3.2808120603936004 68.21992626686423 H 0.0 **** 0.06
12558 H 106.74525886629692 2.460517936069948 68.48891828617391 H 0.0 **** 0.06
12559 H 106.52221043300813 4.144307284546471 69.02162710071755 H 0.0 **** 0.06
12560 H 106.62310502970115 3.766111231102542 67.28461705549941 H 0.0 **** 0.06
12561 C 183.0994378236252 117.00490927999269 61.697148080324126 C 0.0 **** -0.24
12562 H 182.69075559728824 115.99808318348923 61.79181398603936 H 0.0 **** 0.06
12563 H 183.8520954000307 117.16520109796826 62.469959627660245 H 0.0 **** 0.06
12564 H 182.29743978975296 117.7338183174422 61.813541110162845 H 0.0 **** 0.06
12565 H 183.5567374858432 117.11963619025866 60.71471878631857 H 0.0 **** 0.06
12566 C 81.726297463365 234.81119835794092 27.005739722979953 C 0.0 **** -0.24
12567 H 82.6265355985447 234.66730715712353 27.6023846607508 H 0.0 **** 0.06
12568 H 81.37597599027396 235.8372985662145 27.11915841945195 H 0.0 **** 0.06
12569 H 80.95200460246343 234.12288943263266 27.34295619254722 H 0.0 **** 0.06
12570 H 81.95193205653788 234.6176735930507 25.956649749208154 H 0.0 **** 0.06
12571 C 248.96938346108192 138.78898757507866 89.47408001641793 C 0.0 **** -0.24
12572 H 249.327133889943 138.81369784200487 90.5041147812085 H 0.0 **** 0.06
12573 H 248.25854824919924 139.60105943109696 89.31778164239444 H 0.0 **** 0.06
12574 H 248.47977627822172 137.83440818638556 89.28254787409213 H 0.0 **** 0.06
12575 H 249.81318137977345 138.90781415302718 88.79426688961252 H 0.0 **** 0.06
12576 C 35.473796132378 240.45478774858123 244.37303275947113 C 0.0 **** -0.24
12577 H 34.549854120889904 239.93385944522686 244.12144294754552 H 0.0 **** 0.06
12578 H 36.321351198908644 239.92022177676637 243.9436341057276 H 0.0 **** 0.06
12579 H 35.582339751314024 240.49837772810577 245.45732781984088 H 0.0 **** 0.06
12580 H 35.44051230471652 241.46726532766922 243.97090976093534 H 0.0 **** 0.06
12581 C 246.48186159824974 155.3481491308387 99.47187466670445 C 0.0 **** -0.24
12582 H 245.82556896265623 155.19345802254244 100.32810314284788 H 0.0 **** 0.06
12583 H 246.49042874432286 156.4048473650826 99.2060081444233 H 0.0 **** 0.06
12584 H 246.1189940935605 154.76364686071938 98.62633233137834 H 0.0 **** 0.06
12585 H 247.49253975204766 155.02842849839897 99.72676672449481 H 0.0 **** 0.06
12586 C 177.15577570528012 155.4514365886699 38.37183745003057 C 0.0 **** -0.24
12587 H 176.37474777937547 155.22757183631663 37.64440804997325 H 0.0 **** 0.06
12588 H 178.029059739837 154.83252287371462 38.168666668831406 H 0.0 **** 0.06
12589 H 176.78642335409847 155.2421754885675 39.37564280921367 H 0.0 **** 0.06
12590 H 177.42931163082022 156.50320307005023 38.297514370820224 H 0.0 **** 0.06
12591 C 149.94907112425014 126.31137458226925 78.31881704304453 C 0.0 **** -0.24
12592 H 150.2651392680239 125.49282002771963 77.6723466753119 H 0.0 **** 0.06
12593 H 149.42303725453627 125.90806277137239 79.18433857600849 H 0.0 **** 0.06
12594 H 149.2843534068381 126.97542806761959 77.76608754682823 H 0.0 **** 0.06
12595 H 150.82375456760218 126.86918746236526 78.65249537402929 H 0.0 **** 0.06
12596 C 236.92494997718998 127.10452951738188 48.19293958174788 C 0.0 **** -0.24
12597 H 237.914503464856 127.56203042735538 48.174873349461635 H 0.0 **** 0.06
12598 H 236.91260537114448 126.240177235175 47.52884146116516 H 0.0 **** 0.06
12599 H 236.18375245669435 127.83100629125155 47.858118266951195 H 0.0 **** 0.06
12600 H 236.68965016863996 126.78712823188854 49.20918561521957 H 0.0 **** 0.06
12601 C 213.5633046009599 137.56877724335203 227.52985543996735 C 0.0 **** -0.24
12602 H 214.37324830104856 138.07178487367358 227.00071263836423 H 0.0 **** 0.06
12603 H 213.8796191049389 136.56301866784992 227.806379202271 H 0.0 **** 0.06
12604 H 212.68814140066644 137.50881128666205 226.88139646325828 H 0.0 **** 0.06
12605 H 213.31204839214635 138.13176031788126 228.42871913582314 H 0.0 **** 0.06
12606 C 73.53754324160428 88.3794803372731 216.69379186578396 C 0.0 **** -0.24
12607 H 73.08133660657899 88.31805311118083 215.70559210138433 H 0.0 **** 0.06
12608 H 74.4571653905488 87.79351933427208 216.70576624922816 H 0.0 **** 0.06
12609 H 72.84594622286318 87.98535849680076 217.43846904977983 H 0.0 **** 0.06
12610 H 73.76544477655838 89.41974663704664 216.92472795731737 H 0.0 **** 0.06
12611 C 127.16327607670576 146.61689410519173 97.56648508260656 C 0.0 **** -0.24
12612 H 127.01167841695309 146.6449595323842 96.48730157023812 H 0.0 **** 0.06
12613 H 127.70349756617071 147.5101994494401 97.88133565304435 H 0.0 **** 0.06
12614 H 127.74000853115439 145.7309924119415 97.82882725811015 H 0.0 **** 0.06
12615 H 126.1955691219128 146.58208259479514 98.06827088415679 H 0.0 **** 0.06
12616 C 181.15165335432295 225.26342228053147 92.57197374693985 C 0.0 **** -0.24
12617 H 180.14377912062702 224.8579349056828 92.48311381684084 H 0.0 **** 0.06
12618 H 181.6377149328974 225.24425234063247 91.5963830401405 H 0.0 **** 0.06
12619 H 181.7242207197593 224.6598649539074 93.27577608299714 H 0.0 **** 0.06
12620 H 181.09957475965274 226.2911410292704 92.9326599975542 H 0.0 **** 0.06
12621 C 196.50048021179134 159.12217061623667 87.00823504524661 C 0.0 **** -0.24
12622 H 196.91940261195714 158.4443397031384 86.26384344510774 H 0.0 **** 0.06
12623 H 196.01310902880363 159.95726755873974 86.50470252477353 H 0.0 **** 0.06
12624 H 197.29994043774866 159.4989857433462 87.64676012958824 H 0.0 **** 0.06
12625 H 195.77140227490898 158.5881799870629 87.61651452488272 H 0.0 **** 0.06
12626 C 53.36820236152934 35.51955993257181 215.69900598067161 C 0.0 **** -0.24
12627 H 54.45658703922069 35.55792267082799 215.72395891312942 H 0.0 **** 0.06
12628 H 52.98092872879536 35.532926749925025 216.71836707560982 H 0.0 **** 0.06
12629 H 53.048420266511386 34.60493307250408 215.2002137567195 H 0.0 **** 0.06
12630 H 52.986296852711206 36.38296823761323 215.15412172565817 H 0.0 **** 0.06
12631 C 200.63754010412646 44.83341343856263 229.1526550335422 C 0.0 **** -0.24
12632 H 201.7243218617935 44.807426403997226 229.07923402076102 H 0.0 **** 0.06
12633 H 200.32903555130164 45.753938733333484 229.64916152993055 H 0.0 **** 0.06
12634 H 200.29201503314692 43.97619934480217 229.72949208207575 H 0.0 **** 0.06
12635 H 200.20478797026377 44.79608927211767 228.15273250140143 H 0.0 **** 0.06
12636 C 196.0296488165269 194.9944234446266 137.85560540059396 C 0.0 **** -0.24
12637 H 197.10570216447977 195.0859613954966 137.7092648358046 H 0.0 **** 0.06
12638 H 195.50888424072116 195.41871180312256 136.99684744859462 H 0.0 **** 0.06
12639 H 195.73927239677528 195.53197073030714 138.75831688282804 H 0.0 **** 0.06
12640 H 195.7647134123012 193.9427083857621 137.95749368114238 H 0.0 **** 0.06
12641 C 182.00711030932854 137.2999613092613 137.3224547623597 C 0.0 **** -0.24
12642 H 182.71657256281702 137.907090699674 136.7598982885328 H 0.0 **** 0.06
12643 H 181.16366546048914 137.91862286451396 137.62880298739432 H 0.0 **** 0.06
12644 H 182.4983894797016 136.89258447318886 138.20547087137754 H 0.0 **** 0.06
12645 H 181.65103729404638 136.48338877983417 136.69531293695164 H 0.0 **** 0.06
12646 C 197.01502699817712 212.68254440450062 67.9362566172579 C 0.0 **** -0.24
12647 H 197.81985191417672 212.85970313730516 68.64924203150917 H 0.0 **** 0.06
12648 H 196.81449901812294 213.5980174195522 67.37884270835141 H 0.0 **** 0.06
12649 H 196.11559248348158 212.3792735389472 68.47256428045014 H 0.0 **** 0.06
12650 H 197.30941530812925 211.89277125752193 67.24550379395228 H 0.0 **** 0.06
12651 C 155.4248174953883 164.9199653385346 110.89846221656828 C 0.0 **** -0.24
12652 H 155.94195362049797 164.60099212228732 109.9934429428771 H 0.0 **** 0.06
12653 H 155.35466372125003 164.08183009710092 111.59160601950046 H 0.0 **** 0.06
12654 H 154.42224714734536 165.26395605613553 110.64099441530735 H 0.0 **** 0.06
12655 H 155.97850451037638 165.73421565693667 111.36577974894544 H 0.0 **** 0.06
12656 C 164.47057428209644 85.74035642032135 136.6406762507372 C 0.0 **** -0.24
12657 H 163.55240727128736 86.03198941684568 137.14992677648465 H 0.0 **** 0.06
12658 H 165.27782639560388 85.65089139070514 137.36769042103194 H 0.0 **** 0.06
12659 H 164.73087823369696 86.49597702488035 135.90008937878324 H 0.0 **** 0.06
12660 H 164.32163979783874 84.7815120693715 136.143080421318 H 0.0 **** 0.06
12661 C 128.19125755420777 23.665814170859193 183.91777954944115 C 0.0 **** -0.24
12662 H 129.25828781160007 23.569212986804615 183.7159597904797 H 0.0 **** 0.06
12663 H 127.89116522541326 22.916452358647547 184.65157043013573 H 0.0 **** 0.06
12664 H 127.63215973112352 23.51669223857303 182.99448499471993 H 0.0 **** 0.06
12665 H 127.98586907605139 24.66219698444516 184.31024539451698 H 0.0 **** 0.06
12666 C 139.41443463183128 171.3248123367836 216.70914059099582 C 0.0 **** -0.24
12667 H 139.58530791463386 172.38682827014011 216.88999153496303 H 0.0 **** 0.06
12668 H 140.3449202317607 170.8567836337531 216.38829600630123 H 0.0 **** 0.06
12669 H 138.6606986007533 171.2065786231942 215.9316804066269 H 0.0 **** 0.06
12670 H 139.06691812948497 170.85207065660205 217.6275523449858 H 0.0 **** 0.06
12671 C 78.51107766471716 152.96517802320696 210.3183165721554 C 0.0 **** -0.24
12672 H 77.42259024365225 152.9927305546547 210.35509359894004 H 0.0 **** 0.06
12673 H 78.87945899182762 152.21998875894406 211.0238232933401 H 0.0 **** 0.06
12674 H 78.90927955951594 153.94463136463241 210.58186346490913 H 0.0 **** 0.06
12675 H 78.83302495676298 152.70123048501796 209.31062653367132 H 0.0 **** 0.06
12676 C 231.29518344849157 28.355126606388637 217.18286735536327 C 0.0 **** -0.24
12677 H 231.56401804749964 27.621700815717134 217.94318843140474 H 0.0 **** 0.06
12678 H 231.0607643629717 27.841480931495255 216.24979855044577 H 0.0 **** 0.06
12679 H 232.1305511526511 29.03590449955874 217.0229210638384 H 0.0 **** 0.06
12680 H 230.42389897327507 28.92023643528256 217.5149739951492 H 0.0 **** 0.06
12681 C 151.13672642378887 226.9574484416686 1.1514613312894966 C 0.0 **** -0.24
12682 H 150.28299124056673 227.15523092697964 1.799412634830091 H 0.0 **** 0.06
12683 H 150.86506867589256 226.20258017088338 0.41289207887024304 H 0.0 **** 0.06
12684 H 151.9724504932241 226.59549679084034 1.7508225386444423 H 0.0 **** 0.06
12685 H 151.42549801354377 227.87702764523425 0.641768646252558 H 0.0 **** 0.06
12686 C 86.58571697852051 40.51646379279465 223.19143216904112 C 0.0 **** -0.24
12687 H 87.21321680688476 40.15478406901036 224.0057431094399 H 0.0 **** 0.06
12688 H 87.18263539553018 40.59636765836807 222.28240172191042 H 0.0 **** 0.06
12689 H 86.1827574252737 41.49481389615063 223.45019891190657 H 0.0 **** 0.06
12690 H 85.76545076750426 39.81715218674444 223.02709350244695 H 0.0 **** 0.06
12691 C 202.75741125349657 120.29003239124316 236.82032565845412 C 0.0 **** -0.24
12692 H 201.7392517410978 120.58415617745587 236.56484184696438 H 0.0 **** 0.06
12693 H 203.37331905669294 120.29678439742412 235.92074766708834 H 0.0 **** 0.06
12694 H 202.7489265621047 119.28798603303034 237.24810207890621 H 0.0 **** 0.06
12695 H 203.16680561903155 120.99208153560926 237.54641643607508 H 0.0 **** 0.06
12696 C 116.70920387623184 77.40580193759612 63.18922848113081 C 0.0 **** -0.24
12697 H 116.4769566775648 78.41930798388975 63.51538840533328 H 0.0 **** 0.06
12698 H 116.70698561262404 76.73803931292306 64.0511413144819 H 0.0 **** 0.06
12699 H 117.69337642600485 77.39246200013983 62.720831205255024 H 0.0 **** 0.06
12700 H 115.96054554033489 77.074722134815 62.47101861753461 H 0.0 **** 0.06
12701 C 108.22840239053161 181.7312658202624 142.60003984362 C 0.0 **** -0.24
12702 H 108.40535629612523 180.70633861745156 142.2723767185936 H 0.0 **** 0.06
12703 H 108.9879796940983 182.38582238265494 142.1733003565729 H 0.0 **** 0.06
12704 H 108.2780221130291 181.77696415810928 143.68852600627122 H 0.0 **** 0.06
12705 H 107.2415380247783 182.05367826216244 142.26750035244464 H 0.0 **** 0.06
12706 C 87.93283744462474 65.58726725746632 227.11768938761134 C 0.0 **** -0.24
12707 H 88.62183343046951 66.23602889851347 226.57539753898826 H 0.0 **** 0.06
12708 H 88.0392980575713 65.7605059450307 228.18873516991724 H 0.0 **** 0.06
12709 H 88.16228449931418 64.54583590957313 226.89374216455784 H 0.0 **** 0.06
12710 H 86.91025588180892 65.80945267417971 226.81273667588377 H 0.0 **** 0.06
12711 C 230.48441457363162 103.83488581929484 238.9672515525652 C 0.0 **** -0.24
12712 H 229.5890456124556 104.23249431875033 238.49044397707564 H 0.0 **** 0.06
12713 H 230.61985797315606 102.79348236615826 238.6742762836477 H 0.0 **** 0.06
12714 H 230.37827315919515 103.89762623196418 240.0505055463551 H 0.0 **** 0.06
12715 H 231.35207893867607 104.41622542623651 238.65317450290166 H 0.0 **** 0.06
12716 C 246.79642769222846 233.0448952561984 134.93638339438567 C 0.0 **** -0.24
12717 H 246.9380611116182 232.81947936906823 135.9938134064581 H 0.0 **** 0.06
12718 H 247.49994575612783 233.82127765995625 134.63385690475133 H 0.0 **** 0.06
12719 H 245.77692715147552 233.39432273727303 134.7743320185419 H 0.0 **** 0.06
12720 H 246.97035632370324 232.14507025232686 134.34644665096167 H 0.0 **** 0.06
12721 C 169.36275147455657 237.4692032268767 148.8811527828122 C 0.0 **** -0.24
12722 H 169.78193757958766 238.3352197237752 149.39375790279962 H 0.0 **** 0.06
12723 H 169.26715700634392 236.64163965669906 149.5845572259235 H 0.0 **** 0.06
12724 H 170.02244763023552 237.17687933334344 148.06380628444256 H 0.0 **** 0.06
12725 H 168.38078835985854 237.722609686754 148.48231801627634 H 0.0 **** 0.06
12726 C 106.85240887522639 189.4947238005902 247.1784407257033 C 0.0 **** -0.24
12727 H 107.82850370331207 189.78583928648735 246.7897413118635 H 0.0 **** 0.06
12728 H 106.95474924472714 189.17638786247883 248.21561295963045 H 0.0 **** 0.06
12729 H 106.45564725869255 188.67288206095728 246.58309130248097 H 0.0 **** 0.06
12730 H 106.17174664307996 190.34412867697372 247.12395359502597 H 0.0 **** 0.06
12731 C 97.63346638485478 87.36596730691485 111.99999897051 C 0.0 **** -0.24
12732 H 97.38181771434341 86.4753584411479 111.42312430863134 H 0.0 **** 0.06
12733 H 97.35382516271474 87.21346753885467 113.04265671945123 H 0.0 **** 0.06
12734 H 97.09239124062736 88.22291548423104 111.59861376897274 H 0.0 **** 0.06
12735 H 98.70552756781197 87.55017918682785 111.93334037499133 H 0.0 **** 0.06
12736 C 115.58534210825391 227.1313644895088 78.0644843552978 C 0.0 **** -0.24
12737 H 116.3866151573333 227.43336902679084 77.39049450111608 H 0.0 **** 0.06
12738 H 114.82431831093771 227.9109639995084 78.09481504184066 H 0.0 **** 0.06
12739 H 115.98997886302374 226.97861249097298 79.06507892561916 H 0.0 **** 0.06
12740 H 115.14045610172087 226.20251244076297 77.70754895261524 H 0.0 **** 0.06
12741 C 67.85475063434518 38.60168535243484 144.60048006283583 C 0.0 **** -0.24
12742 H 67.69909567870823 37.59450538337927 144.98619965933244 H 0.0 **** 0.06
12743 H 68.04416862474534 38.55377368475742 143.52752532065693 H 0.0 **** 0.06
12744 H 68.70991738611482 39.05401629521262 145.10098290749252 H 0.0 **** 0.06
12745 H 66.96438413224678 39.203069826930914 144.78619162046996 H 0.0 **** 0.06
12746 C 231.43445126776493 141.00266805864547 38.34788007296466 C 0.0 **** -0.24
12747 H 232.37343675155114 141.04980852491497 37.79666541120943 H 0.0 **** 0.06
12748 H 230.81316551185313 141.85801327893802 38.080726294689825 H 0.0 **** 0.06
12749 H 231.63995722765435 141.02164483456207 39.41744621701707 H 0.0 **** 0.06
12750 H 230.91178749208817 140.080945706625 38.09505792505945 H 0.0 **** 0.06
12751 C 112.30289583001206 138.49566002664872 201.70336757475158 C 0.0 **** -0.24
12752 H 111.99833752460773 137.66850500760884 202.3445199601582 H 0.0 **** 0.06
12753 H 113.14579736563309 139.0173445872571 202.1590810933621 H 0.0 **** 0.06
12754 H 111.4689511222297 139.18680730075775 201.58310023032251 H 0.0 **** 0.06
12755 H 112.59955617662314 138.1089480124625 200.7284444879565 H 0.0 **** 0.06
12756 C 154.8598697930171 99.04412308820767 113.12444782891248 C 0.0 **** -0.24
12757 H 154.8329911114884 97.9650917458429 113.27555529203025 H 0.0 **** 0.06
12758 H 154.4043845926467 99.28791749004515 112.1640062101338 H 0.0 **** 0.06
12759 H 155.89487934102215 99.38620281191695 113.13351808719253 H 0.0 **** 0.06
12760 H 154.30651075624365 99.53707984980085 113.92404021327724 H 0.0 **** 0.06
12761 C 71.90410342154237 226.92379309928194 200.94690238523165 C 0.0 **** -0.24
12762 H 72.00414525785658 226.06506808106064 201.61126941475553 H 0.0 **** 0.06
12763 H 72.36554058727097 227.79651348600783 201.40945988634948 H 0.0 **** 0.06
12764 H 70.84791553842419 227.12313039474577 200.76688748843716 H 0.0 **** 0.06
12765 H 72.39963626028461 226.70989418559907 200.00001430971292 H 0.0 **** 0.06
12766 C 68.18667095244288 105.389248268313 39.35493496779459 C 0.0 **** -0.24
12767 H 68.1575900355376 105.27941961455437 40.43884342004387 H 0.0 **** 0.06
12768 H 67.3433124894388 104.85560660556831 38.913997704004004 H 0.0 **** 0.06
12769 H 69.11962181593842 104.97568712159347 38.972339319064304 H 0.0 **** 0.06
12770 H 68.1237399366062 106.445959971017 39.09476841448816 H 0.0 **** 0.06
12771 C 150.4181647816239 163.51015644075477 151.1768044578451 C 0.0 **** -0.24
12772 H 149.5819271875715 163.91690427520916 150.6076309691017 H 0.0 **** 0.06
12773 H 150.04632597521552 162.77943351329276 151.89645054720893 H 0.0 **** 0.06
12774 H 150.92293171710986 164.31759308325667 151.70689216254598 H 0.0 **** 0.06
12775 H 151.11926092278114 163.02738767857494 150.49703237954844 H 0.0 **** 0.06
12776 C 139.22136995385856 176.1895065645093 0.662016348136504 C 0.0 **** -0.24
12777 H 140.0675199515949 176.55020346675948 1.2464378487662913 H 0.0 **** 0.06
12778 H 138.29151208695646 176.5054035508483 1.1367752629393095 H 0.0 **** 0.06
12779 H 139.25301788477705 175.1018400972743 0.6104254600054162 H 0.0 **** 0.06
12780 H 139.27370598920385 176.60293481519494 -0.3449611023250725 H 0.0 **** 0.06
12781 C 220.70150506329352 216.7576202030411 118.35538781079546 C 0.0 **** -0.24
12782 H 220.82390724165776 216.00377536160667 119.13261186048638 H 0.0 **** 0.06
12783 H 221.6509745427041 216.90506868412353 117.84001684795962 H 0.0 **** 0.06
12784 H 220.38424909178786 217.69755547267442 118.80811611357458 H 0.0 **** 0.06
12785 H 219.94797257045886 216.42481160906635 117.64134804004189 H 0.0 **** 0.06
12786 C 133.73941726366124 87.46033794296804 13.643393015038228 C 0.0 **** -0.24
12787 H 132.77613875506208 87.05339258275316 13.949612788599765 H 0.0 **** 0.06
12788 H 133.82922482710362 87.40420918320635 12.558605140962285 H 0.0 **** 0.06
12789 H 134.54028491218747 86.88303974804106 14.10454848250653 H 0.0 **** 0.06
12790 H 133.8120356325103 88.50029311201297 13.962156862958267 H 0.0 **** 0.06
12791 C 159.60442784103236 55.921975414514975 64.29811262599392 C 0.0 **** -0.24
12792 H 160.28862548872425 56.386841477137324 63.588302305323424 H 0.0 **** 0.06
12793 H 158.63160157468607 56.41057893570948 64.23815239213144 H 0.0 **** 0.06
12794 H 160.00223348414335 56.02523223620574 65.30781073486037 H 0.0 **** 0.06
12795 H 159.49561151270345 54.864162452501915 64.0573548230598 H 0.0 **** 0.06
12796 C 18.327180108545363 85.2155243632055 178.1267738593328 C 0.0 **** -0.24
12797 H 19.166099838774286 85.49262743249963 177.48901517727316 H 0.0 **** 0.06
12798 H 17.94089180363136 86.10429554236379 178.62545181434382 H 0.0 **** 0.06
12799 H 18.66145799374614 84.49591243983377 178.87355865842753 H 0.0 **** 0.06
12800 H 17.54100121963114 84.76911046946509 177.5178683170621 H 0.0 **** 0.06
12801 C 48.44046741587397 44.578188423833495 184.73258300786597 C 0.0 **** -0.24
12802 H 48.176708087094255 45.29733421747389 183.95830018161962 H 0.0 **** 0.06
12803 H 49.212879971223686 43.9068428921843 184.35660349218318 H 0.0 **** 0.06
12804 H 47.55788340195326 43.99919457987866 185.00699905991627 H 0.0 **** 0.06
12805 H 48.81438232927562 45.10811234463225 185.60905197584708 H 0.0 **** 0.06
12806 C 115.74579328458387 153.85894856489654 67.92691104123949 C 0.0 **** -0.24
12807 H 116.3478781916213 153.00157025893478 67.62370683908978 H 0.0 **** 0.06
12808 H 115.81528205212544 154.63768891805162 67.16756109528825 H 0.0 **** 0.06
12809 H 116.11448163904402 154.24350384934408 68.87790772923307 H 0.0 **** 0.06
12810 H 114.70683639965685 153.55030279431938 68.0375452910819 H 0.0 **** 0.06
12811 C 151.7334987606239 241.38662339103075 69.15160001174908 C 0.0 **** -0.24
12812 H 152.70139275519827 241.85320106700686 69.33535816349851 H 0.0 **** 0.06
12813 H 151.07165925074727 242.10315328304796 68.66424084802154 H 0.0 **** 0.06
12814 H 151.29610791794414 241.0739949046615 70.0997462286289 H 0.0 **** 0.06
12815 H 151.86614322632423 240.51818071960793 68.50667804947977 H 0.0 **** 0.06
12816 C 28.31639880059008 28.85753582500999 22.00012432456188 C 0.0 **** -0.24
12817 H 27.456817482407374 29.48671465804209 21.772011392692363 H 0.0 **** 0.06
12818 H 29.141567363762064 29.114604350332726 21.334797938696127 H 0.0 **** 0.06
12819 H 28.04820849667631 27.810859862934365 21.859184788807596 H 0.0 **** 0.06
12820 H 28.61951702617195 29.01916762233617 23.03503885326802 H 0.0 **** 0.06
12821 C 180.10382649904415 229.37157406395335 223.8787312348595 C 0.0 **** -0.24
12822 H 179.80795037459598 229.3148186498247 224.92529164450644 H 0.0 **** 0.06
12823 H 180.29123405391044 228.3673149561659 223.49892652190908 H 0.0 **** 0.06
12824 H 181.01119253628306 229.9685112351897 223.78938666306277 H 0.0 **** 0.06
12825 H 179.30487179220742 229.83587467989543 223.29992479788916 H 0.0 **** 0.06
12826 C 224.51422661326657 87.51521564386735 162.7032165961975 C 0.0 **** -0.24
12827 H 225.09324063783976 88.40065932235959 162.96846145556373 H 0.0 **** 0.06
12828 H 224.53604551248986 86.80651354108414 163.53171333386055 H 0.0 **** 0.06
12829 H 224.94524419832436 87.05170373546287 161.81701509515446 H 0.0 **** 0.06
12830 H 223.4834558026164 87.80286138534427 162.49868781526723 H 0.0 **** 0.06
12831 C 84.57709140451269 233.88866788940325 155.72013456926953 C 0.0 **** -0.24
12832 H 85.46401650557374 233.3585143119438 156.06588969956152 H 0.0 **** 0.06
12833 H 84.8792328296866 234.74249209552573 155.11161227908627 H 0.0 **** 0.06
12834 H 84.00422527458161 234.2387531451377 156.5792872259639 H 0.0 **** 0.06
12835 H 83.96132928310882 233.2169677291318 155.12249130784053 H 0.0 **** 0.06
12836 C 129.36903680023315 23.711617870060337 61.85497267332764 C 0.0 **** -0.24
12837 H 129.59767873639962 23.65954119375543 62.91995552029408 H 0.0 **** 0.06
12838 H 128.60255898241076 24.466960393968293 61.685296561476235 H 0.0 **** 0.06
12839 H 129.00621968306817 22.742480802461017 61.513537985129744 H 0.0 **** 0.06
12840 H 130.2707208319054 23.97699224699869 61.3032663079799 H 0.0 **** 0.06
12841 C 54.69697389454885 134.28200693578665 127.26563817185871 C 0.0 **** -0.24
12842 H 53.72388143414602 133.88563997873388 127.55756261233978 H 0.0 **** 0.06
12843 H 54.95661204230075 133.91389958629938 126.27354061038437 H 0.0 **** 0.06
12844 H 55.450603163441286 133.95790984271022 127.98295300013874 H 0.0 **** 0.06
12845 H 54.65475909736287 135.3704872529939 127.25111005597614 H 0.0 **** 0.06
12846 C 171.02575908706962 30.122436629463465 62.45260969268594 C 0.0 **** -0.24
12847 H 170.8022525248894 29.416189763091694 61.65279299318169 H 0.0 **** 0.06
12848 H 172.02626792993263 30.529171781007705 62.30898820775545 H 0.0 **** 0.06
12849 H 170.97575187074023 29.609243689985448 63.41345196060013 H 0.0 **** 0.06
12850 H 170.29688428730876 30.932890068132423 62.43583704455017 H 0.0 **** 0.06
12851 C 100.07647963023194 87.02474615018221 25.08664517459202 C 0.0 **** -0.24
12852 H 100.0242206359811 86.50872535108246 24.128700976072523 H 0.0 **** 0.06
12853 H 99.1106668571808 86.95722552278667 25.588859506979162 H 0.0 **** 0.06
12854 H 100.328124910517 88.0719420288303 24.922678710611166 H 0.0 **** 0.06
12855 H 100.84168227437999 86.5595241085924 25.707771515339445 H 0.0 **** 0.06
12856 C 129.0409606634274 66.46167143207492 240.86805194386582 C 0.0 **** -0.24
12857 H 128.62792137468193 67.46010602554244 240.728214655901 H 0.0 **** 0.06
12858 H 129.25314037388526 66.30054993725193 241.92558124159817 H 0.0 **** 0.06
12859 H 129.9621926760546 66.36588562363829 240.29464963085871 H 0.0 **** 0.06
12860 H 128.32001767286374 65.71936805374935 240.524797704639 H 0.0 **** 0.06
12861 C 118.55989907692245 198.2746588503104 87.40169063427896 C 0.0 **** -0.24
12862 H 117.59194637644293 197.77423963244175 87.4237755276358 H 0.0 **** 0.06
12863 H 118.6253256429757 198.9750694460412 88.2351514579689 H 0.0 **** 0.06
12864 H 118.66619676951095 198.81764282325673 86.46235641346169 H 0.0 **** 0.06
12865 H 119.3543852578079 197.53308276010335 87.48556065633173 H 0.0 **** 0.06
12866 C 209.58758139922 63.430192263587514 165.59800238531395 C 0.0 **** -0.24
12867 H 209.72106994232442 63.236855729250834 164.53450375148952 H 0.0 **** 0.06
12868 H 210.3357870095008 62.87653339583434 166.16561122607857 H 0.0 **** 0.06
12869 H 208.59068332290764 63.11149513410791 165.90243453485314 H 0.0 **** 0.06
12870 H 209.70225890186367 64.49794236762722 165.79015954717042 H 0.0 **** 0.06
12871 C 65.11047373931163 19.824386090766964 108.75945125396083 C 0.0 **** -0.24
12872 H 64.48867844938044 19.247379061515232 109.44350612659605 H 0.0 **** 0.06
12873 H 64.51875064847141 20.627094054373302 108.31997284350095 H 0.0 **** 0.06
12874 H 65.48344853831017 19.17256874204179 107.96946042371826 H 0.0 **** 0.06
12875 H 65.9528326949281 20.249980594192465 109.30552293909255 H 0.0 **** 0.06
12876 C 124.24674451324313 48.97381439554883 36.931171051837595 C 0.0 **** -0.24
12877 H 123.40904073473357 48.472702185624854 36.44614373127993 H 0.0 **** 0.06
12878 H 124.67213162100094 48.316161291563304 37.68932721911696 H 0.0 **** 0.06
12879 H 123.89758383273355 49.892479249897264 37.40123302764775 H 0.0 **** 0.06
12880 H 125.00757049676403 49.212661821792466 36.18790508246619 H 0.0 **** 0.06
12881 C 155.3834366511273 130.05928220052638 8.865714387819068 C 0.0 **** -0.24
12882 H 156.26839401855963 130.67479794334236 9.024860200731226 H 0.0 **** 0.06
12883 H 154.9975268860274 130.2326152718108 7.860797040107229 H 0.0 **** 0.06
12884 H 154.6207689749991 130.32318820332952 9.59811332471638 H 0.0 **** 0.06
12885 H 155.64664503066498 129.00841460230825 8.977960503516286 H 0.0 **** 0.06
12886 C 178.30461898297676 101.51596990595772 69.17655622761157 C 0.0 **** -0.24
12887 H 178.03295480078435 100.98076530010209 68.26566260635406 H 0.0 **** 0.06
12888 H 179.10700615840148 102.22063047712479 68.95766613879482 H 0.0 **** 0.06
12889 H 178.64098282369758 100.80260044625507 69.92868517007383 H 0.0 **** 0.06
12890 H 177.43642957878865 102.05804089690889 69.5513145065666 H 0.0 **** 0.06
12891 C 235.47464511304617 149.24469264862782 88.01525806620074 C 0.0 **** -0.24
12892 H 234.62456407389385 149.0677957188036 87.35726242767063 H 0.0 **** 0.06
12893 H 235.12086299849938 149.64383270207713 88.9665571859737 H 0.0 **** 0.06
12894 H 236.15110300216912 149.96091696817186 87.55002693356161 H 0.0 **** 0.06
12895 H 236.0022991689849 148.30636686638783 88.18814386412927 H 0.0 **** 0.06
12896 C 39.163696219007065 67.0978249698274 36.63593176774654 C 0.0 **** -0.24
12897 H 39.020274108408486 66.7057097786703 37.64205518441119 H 0.0 **** 0.06
12898 H 40.230618750368166 67.18965791260212 36.42962955355583 H 0.0 **** 0.06
12899 H 38.69328157863171 68.07831189348005 36.55743950974818 H 0.0 **** 0.06
12900 H 38.710999919544264 66.4193971223902 35.913302347916044 H 0.0 **** 0.06
12901 C 146.24467091567334 34.682013111484835 199.2031473427083 C 0.0 **** -0.24
12902 H 146.6665006276758 35.40732416449556 199.8992458587627 H 0.0 **** 0.06
12903 H 146.62578143347312 33.68815547773323 199.44041166302867 H 0.0 **** 0.06
12904 H 146.52925657995263 34.94668915812444 198.18556435167443 H 0.0 **** 0.06
12905 H 145.15880570531255 34.68543142023013 199.29020258624072 H 0.0 **** 0.06
12906 C 207.99523002736262 118.70368634044266 247.01173069696802 C 0.0 **** -0.24
12907 H 208.20634014972103 119.53615507656778 246.34016916353733 H 0.0 **** 0.06
12908 H 207.66335996460688 119.08969803649029 247.9757471929877 H 0.0 **** 0.06
12909 H 208.89944370848508 118.10997968469027 247.14912284831956 H 0.0 **** 0.06
12910 H 207.21278441055392 118.07969452245274 246.58004720728457 H 0.0 **** 0.06
12911 C 100.95880289290747 157.96684273274667 219.07679524683402 C 0.0 **** -0.24
12912 H 100.65025639493885 157.17327589524584 218.39662887238433 H 0.0 **** 0.06
12913 H 101.60049279243466 158.67085321323847 218.5454536420154 H 0.0 **** 0.06
12914 H 101.50688165005803 157.5346830662754 219.91397519577583 H 0.0 **** 0.06
12915 H 100.07709349971034 158.48805026358963 219.44989687703566 H 0.0 **** 0.06
12916 C 141.08534164328108 152.65337484119897 141.35748091004217 C 0.0 **** -0.24
12917 H 141.78952561928827 151.84189664350038 141.54570590355416 H 0.0 **** 0.06
12918 H 141.32442696891113 153.1274462872348 140.40565054801738 H 0.0 **** 0.06
12919 H 141.15647176407612 153.38838846965893 142.15932443745686 H 0.0 **** 0.06
12920 H 140.0721462897658 152.25244672785522 141.3204755293727 H 0.0 **** 0.06
12921 C 149.63703744073734 128.20213887286533 230.6314268978038 C 0.0 **** -0.24
12922 H 149.65502693514694 127.11217500597084 230.6420438401936 H 0.0 **** 0.06
12923 H 150.59010497008245 128.58391604727146 230.99926117466666 H 0.0 **** 0.06
12924 H 148.83047868764217 128.55721419250702 231.27257279396198 H 0.0 **** 0.06
12925 H 149.47299594066223 128.55258968382043 229.61313854466783 H 0.0 **** 0.06
12926 C 194.37502799148464 29.975168770792493 84.32802611629131 C 0.0 **** -0.24
12927 H 195.21866320051936 29.816872667168013 83.65697355736324 H 0.0 **** 0.06
12928 H 193.51788565083376 30.330688643888465 83.75682195879975 H 0.0 **** 0.06
12929 H 194.6438948009341 30.716381012406018 85.08069644361763 H 0.0 **** 0.06
12930 H 194.12029877703628 29.0358081634279 84.818477177065 H 0.0 **** 0.06
12931 C 101.2100691611933 199.30184374335516 26.96981386907555 C 0.0 **** -0.24
12932 H 100.21812129736051 199.36971733112648 27.415521365091976 H 0.0 **** 0.06
12933 H 101.11616565794037 199.1358510137019 25.896058716956304 H 0.0 **** 0.06
12934 H 101.75471491252415 198.47175273040423 27.41958101287443 H 0.0 **** 0.06
12935 H 101.75251864325875 200.2305463058221 27.148553021541872 H 0.0 **** 0.06
12936 C 237.89767623621464 22.162405636367453 243.64389980742646 C 0.0 **** -0.24
12937 H 238.48497215730626 22.91647672329603 243.11987989720126 H 0.0 **** 0.06
12938 H 238.1939700354029 22.13609566064359 244.69304200431895 H 0.0 **** 0.06
12939 H 238.0734807589916 21.18675925703313 243.19151891163153 H 0.0 **** 0.06
12940 H 236.83928398059376 22.41121462731202 243.57153627474725 H 0.0 **** 0.06
12941 C 67.3050703939073 173.68704519283065 198.999780677584 C 0.0 **** -0.24
12942 H 67.17636043807863 174.35298670585192 198.1471839344001 H 0.0 **** 0.06
12943 H 67.4226438090138 174.27870282889333 199.9078282016796 H 0.0 **** 0.06
12944 H 68.19166146355678 173.0715671419131 198.84871907107143 H 0.0 **** 0.06
12945 H 66.42869606146985 173.04485906056252 199.09500453832118 H 0.0 **** 0.06
12946 C 228.62831445337957 29.05385943802284 210.84725367181926 C 0.0 **** -0.24
12947 H 229.06363259760053 28.457306808863848 211.6486297620083 H 0.0 **** 0.06
12948 H 227.90016278522077 29.748324177518725 211.2666180065487 H 0.0 **** 0.06
12949 H 228.13414842464167 28.39645671350641 210.13170481557057 H 0.0 **** 0.06
12950 H 229.41544746459678 29.614103221704852 210.34270625705653 H 0.0 **** 0.06
12951 C 224.64484721026048 65.30521241580544 41.288035607726016 C 0.0 **** -0.24
12952 H 225.0905228307716 64.8439741932913 42.170338350102796 H 0.0 **** 0.06
12953 H 225.0288125143711 64.8181612181871 40.391016456999864 H 0.0 **** 0.06
12954 H 224.90065338510277 66.36381734002848 41.264533053122264 H 0.0 **** 0.06
12955 H 223.5613658043343 65.19332421138515 41.32816840451797 H 0.0 **** 0.06
12956 C 76.9520194015071 39.53593966833651 17.907646405082843 C 0.0 **** -0.24
12957 H 75.93927647227645 39.77578292967942 18.230620912323204 H 0.0 **** 0.06
12958 H 77.62725693107285 40.33945603969241 18.20337313332473 H 0.0 **** 0.06
12959 H 76.97148651048113 39.42554092514129 16.823789075661793 H 0.0 **** 0.06
12960 H 77.27005769219798 38.60297877883281 18.372802499021688 H 0.0 **** 0.06
12961 C 128.11323836091287 227.82474451293058 82.04899593933976 C 0.0 **** -0.24
12962 H 127.31754444389472 227.4401435034304 81.41105407511697 H 0.0 **** 0.06
12963 H 127.80842416507963 228.78150606990275 82.47364780068392 H 0.0 **** 0.06
12964 H 129.0186463949978 227.96211562898148 81.45637628543943 H 0.0 **** 0.06
12965 H 128.30902101616525 227.11548860578733 82.85333777056329 H 0.0 **** 0.06
12966 C 30.403676318582455 141.56406549579586 200.0455542191662 C 0.0 **** -0.24
12967 H 29.876174794041702 142.1930025079587 199.3287572181474 H 0.0 **** 0.06
12968 H 31.00022377437344 140.82516742015517 199.51110279034296 H 0.0 **** 0.06
12969 H 29.68029216327298 141.05596435818558 200.68352770635477 H 0.0 **** 0.06
12970 H 31.056995403370962 142.18440640758877 200.6604931691241 H 0.0 **** 0.06
12971 C 163.3761550662364 233.24066133468 88.90624834677948 C 0.0 **** -0.24
12972 H 163.1680341479321 233.14019206368707 87.84112573600709 H 0.0 **** 0.06
12973 H 164.4097636092998 232.95537704737873 89.10308540589295 H 0.0 **** 0.06
12974 H 162.7062192322529 232.5921343712319 89.47070500960055 H 0.0 **** 0.06
12975 H 163.220514634036 234.27592525954262 89.21023557303619 H 0.0 **** 0.06
12976 C 248.6591807515315 137.42692734716286 52.06320091077359 C 0.0 **** -0.24
12977 H 248.66267982291708 137.4110260882188 53.15334424131143 H 0.0 **** 0.06
12978 H 247.8905091072975 136.74820507671018 51.692639769889354 H 0.0 **** 0.06
12979 H 249.6341689086218 137.10907368847845 51.69310400571166 H 0.0 **** 0.06
12980 H 248.45047944131522 138.43858548498633 51.71516047531648 H 0.0 **** 0.06
12981 C 32.01506529221648 25.860814998523935 162.8838453011455 C 0.0 **** -0.24
12982 H 31.58938965925337 26.80219682881051 162.53583369480964 H 0.0 **** 0.06
12983 H 31.71395851649129 25.056006420690608 162.21275705215402 H 0.0 **** 0.06
12984 H 31.65526174183111 25.650409066573403 163.89072876636914 H 0.0 **** 0.06
12985 H 33.10250307396093 25.937579790231112 162.89523876142124 H 0.0 **** 0.06
12986 C 92.68096420552646 91.40204126189062 30.939932695662733 C 0.0 **** -0.24
12987 H 91.79940220687581 91.8830236115594 30.51462691937894 H 0.0 **** 0.06
12988 H 93.1894124706048 90.82724416868612 30.1667288290663 H 0.0 **** 0.06
12989 H 92.37628593041865 90.73711670177332 31.747912920666437 H 0.0 **** 0.06
12990 H 93.35602288029466 92.16331191986964 31.330810348125738 H 0.0 **** 0.06
12991 C 235.53193995340382 15.797402656866979 174.18536555706243 C 0.0 **** -0.24
12992 H 236.3478708934735 16.47154581359763 174.44768269962566 H 0.0 **** 0.06
12993 H 234.60474633035435 16.16041200739727 174.62847362852455 H 0.0 **** 0.06
12994 H 235.75068633761254 14.799533636581359 174.56513786259293 H 0.0 **** 0.06
12995 H 235.4272069560768 15.759304367097585 173.10159248221936 H 0.0 **** 0.06
12996 C 178.59962241974853 3.9295696697813156 107.97937510631303 C 0.0 **** -0.24
12997 H 178.5925987323442 3.0347115259158812 107.35655479089854 H 0.0 **** 0.06
12998 H 178.43150383272757 3.648674905194369 109.0187176071876 H 0.0 **** 0.06
12999 H 177.8105749766055 4.606011044792311 107.65264011243355 H 0.0 **** 0.06
13000 H 179.56613231412496 4.42654796352241 107.88780664877669 H 0.0 **** 0.06
13001 C 163.5375740290336 29.90225270481308 140.02928841515305 C 0.0 **** -0.24
13002 H 163.48276418971327 29.85619119908337 138.9423372784801 H 0.0 **** 0.06
13003 H 163.30609000674346 30.914103561046602 140.36235682215002 H 0.0 **** 0.06
13004 H 164.54342255431172 29.63408236458193 140.35353830106038 H 0.0 **** 0.06
13005 H 162.81898520450406 29.20440647081685 140.45879662394762 H 0.0 **** 0.06
13006 C 50.461444802766394 45.352793973699974 198.94757747420437 C 0.0 **** -0.24
13007 H 49.5122927556326 45.024311139993756 199.37122590162042 H 0.0 **** 0.06
13008 H 50.27433975974337 45.932818625018 198.04353340341635 H 0.0 **** 0.06
13009 H 51.06901564124631 44.48187823175114 198.701607931275 H 0.0 **** 0.06
13010 H 50.98911518232224 45.970877436858345 199.67339243964773 H 0.0 **** 0.06
13011 C 41.88385707417687 185.15640317241497 155.27378987510096 C 0.0 **** -0.24
13012 H 41.30499419194395 185.43601443701058 154.3929829252476 H 0.0 **** 0.06
13013 H 41.282276023754164 184.5111795069638 155.9138041153559 H 0.0 **** 0.06
13014 H 42.16614351259615 186.05464008814766 155.82354016856704 H 0.0 **** 0.06
13015 H 42.78339718330105 184.62393024458066 154.96281599366966 H 0.0 **** 0.06
13016 C 218.0406565240063 115.09395498194596 88.7497145105385 C 0.0 **** -0.24
13017 H 218.51848374893 114.16442842502283 89.05957753607407 H 0.0 **** 0.06
13018 H 218.806396486957 115.81734879475798 88.46537440928955 H 0.0 **** 0.06
13019 H 217.4519015952497 115.49295853211223 89.57533631492868 H 0.0 **** 0.06
13020 H 217.3892755148646 114.90045668754269 87.89765714361937 H 0.0 **** 0.06
13021 C 236.45081186302482 43.44395560631379 33.957413137988596 C 0.0 **** -0.24
13022 H 235.73756138205343 44.18690870918883 33.59988829754511 H 0.0 **** 0.06
13023 H 237.12361402960488 43.166266448788136 33.145823001959485 H 0.0 **** 0.06
13024 H 235.91261375264094 42.56212921290961 34.30344574385779 H 0.0 **** 0.06
13025 H 237.02888373469955 43.86320676777267 34.781159426407754 H 0.0 **** 0.06
13026 C 116.08832736236548 24.41915483782364 31.121441608899985 C 0.0 **** -0.24
13027 H 116.80121861392934 25.06762621098696 30.613855661656316 H 0.0 **** 0.06
13028 H 116.33330386485153 24.37131265266575 32.18313799733946 H 0.0 **** 0.06
13029 H 116.13590064915758 23.41872182787668 30.6913100657233 H 0.0 **** 0.06
13030 H 115.08130121709917 24.819587933425765 30.99890891533086 H 0.0 **** 0.06
13031 C 34.984268828403685 196.0174198505926 135.34878051896584 C 0.0 **** -0.24
13032 H 34.73431818809851 195.42338363516166 136.2271490118947 H 0.0 **** 0.06
13033 H 35.94580925385523 195.6907069073666 134.9509184240855 H 0.0 **** 0.06
13034 H 35.04489871102888 197.0700041920953 135.6281562616146 H 0.0 **** 0.06
13035 H 34.21257363535406 195.8865214449033 134.58981891849038 H 0.0 **** 0.06
13036 C 242.58984164492685 62.24907879469535 169.2082190144284 C 0.0 **** -0.24
13037 H 243.22598164530854 62.7548338303192 168.4816804297465 H 0.0 **** 0.06
13038 H 241.552350857669 62.292077003653105 168.87409088523398 H 0.0 **** 0.06
13039 H 242.68136575156046 62.74095420296658 170.17611181854997 H 0.0 **** 0.06
13040 H 242.89899463407903 61.20738941611842 169.29845893934635 H 0.0 **** 0.06
13041 C 203.38238280479717 14.317321315916018 17.686641134298867 C 0.0 **** -0.24
13042 H 204.44444270216172 14.080166133191852 17.609649039732034 H 0.0 **** 0.06
13043 H 202.90894414034412 14.181937295371625 16.713991366342185 H 0.0 **** 0.06
13044 H 203.26439229647264 15.352681999210546 18.007605419484463 H 0.0 **** 0.06
13045 H 202.91500673470767 13.654766526898982 18.414738877935207 H 0.0 **** 0.06
13046 C 214.8877991647915 69.68470143551986 177.63189878146343 C 0.0 **** -0.24
13047 H 215.2545168536708 70.11355415920974 178.56506653582096 H 0.0 **** 0.06
13048 H 213.80266786094813 69.59744991494279 177.6732482949206 H 0.0 **** 0.06
13049 H 215.3274689902888 68.69727879598489 177.4885476324097 H 0.0 **** 0.06
13050 H 215.16880408747676 70.33145250824265 176.80058063855444 H 0.0 **** 0.06
13051 C 22.34698680691332 120.10591773610798 223.4484036174087 C 0.0 **** -0.24
13052 H 21.75399864654861 119.1915498061785 223.45869422400605 H 0.0 **** 0.06
13053 H 22.31297554728573 120.54873850715106 222.4528346489563 H 0.0 **** 0.06
13054 H 23.380109497791594 119.87187040226016 223.70730887109983 H 0.0 **** 0.06
13055 H 21.941853766282364 120.81050994746036 224.1746546782512 H 0.0 **** 0.06
13056 C 189.2875178230251 229.44065603793806 235.01266437884303 C 0.0 **** -0.24
13057 H 189.81174222805734 228.83228019160953 234.27579724705612 H 0.0 **** 0.06
13058 H 188.61224207161885 230.12728618171136 234.50201550199407 H 0.0 **** 0.06
13059 H 190.01344814256367 230.00878085213753 235.59540012306076 H 0.0 **** 0.06
13060 H 188.71551018333486 228.793475416187 235.67778096641783 H 0.0 **** 0.06
13061 C 13.870236347466545 136.3222667962585 223.61052381169168 C 0.0 **** -0.24
13062 H 14.927202929011273 136.49338825540397 223.8097137753876 H 0.0 **** 0.06
13063 H 13.599612728011465 136.78398909952418 222.66049436537787 H 0.0 **** 0.06
13064 H 13.274292416960776 136.76231775947394 224.41050290949843 H 0.0 **** 0.06
13065 H 13.678044428025615 135.25074473194525 223.56233362394954 H 0.0 **** 0.06
13066 C 76.63706684025095 40.596533224304025 246.04532408892152 C 0.0 **** -0.24
13067 H 76.71122594866031 39.533485097593555 245.81490993693825 H 0.0 **** 0.06
13068 H 75.65641202946884 40.964862602025875 245.74390381481282 H 0.0 **** 0.06
13069 H 77.41188366208186 41.14082851384384 245.50422233141342 H 0.0 **** 0.06
13070 H 76.7685763422889 40.74531343737769 247.11645165130687 H 0.0 **** 0.06
13071 C 200.83085463976806 40.29348100171714 224.89250554210128 C 0.0 **** -0.24
13072 H 200.3809259986771 40.26833295154185 225.88431467162962 H 0.0 **** 0.06
13073 H 201.8514003768262 39.915937742984084 224.94620883862092 H 0.0 **** 0.06
13074 H 200.8408470245871 41.31961636754633 224.5244078150692 H 0.0 **** 0.06
13075 H 200.24787131448318 39.669782616070876 224.21454290365403 H 0.0 **** 0.06
13076 C 151.9412300700566 94.78531138787724 100.86490520420273 C 0.0 **** -0.24
13077 H 152.52973443531525 94.84058261547474 101.78105436157438 H 0.0 **** 0.06
13078 H 152.61051482223743 94.69170397657737 100.00887532410087 H 0.0 **** 0.06
13079 H 151.34441078386416 95.69168309283612 100.7626572620814 H 0.0 **** 0.06
13080 H 151.28225589998766 93.91826971739133 100.90804858849037 H 0.0 **** 0.06
13081 C 51.56009566761463 47.522697507700954 72.88510770098867 C 0.0 **** -0.24
13082 H 51.50479922644216 46.434024395580934 72.90515098179853 H 0.0 **** 0.06
13083 H 51.400150469039005 47.91218503627894 73.89114824700437 H 0.0 **** 0.06
13084 H 50.79112693094814 47.91234503192632 72.2175873162995 H 0.0 **** 0.06
13085 H 52.542452329350425 47.829741434707756 72.52770320364087 H 0.0 **** 0.06
13086 C 45.42315192524376 203.30701275366943 167.7441539022784 C 0.0 **** -0.24
13087 H 45.6961126229846 203.98992995665984 168.54806317026907 H 0.0 **** 0.06
13088 H 46.25430672526542 202.62943737205524 167.54572285289294 H 0.0 **** 0.06
13089 H 45.196449683943186 203.87801181934645 166.84388298301235 H 0.0 **** 0.06
13090 H 44.5467158424091 202.73048763923128 168.03905244107224 H 0.0 **** 0.06
13091 C 2.621761856058214 56.134953542654074 102.62353313957186 C 0.0 **** -0.24
13092 H 1.8875431042382331 56.846610274539415 103.00046428008906 H 0.0 **** 0.06
13093 H 3.282280201168021 56.63463949010847 101.91393462466567 H 0.0 **** 0.06
13094 H 2.1077012424476322 55.313314546258994 102.12480313849204 H 0.0 **** 0.06
13095 H 3.209522876378969 55.74524985970933 103.45493051504073 H 0.0 **** 0.06
13096 C 118.17409613878507 104.82766531405909 146.59559528816848 C 0.0 **** -0.24
13097 H 117.36250692452953 104.15166039824402 146.86665410130877 H 0.0 **** 0.06
13098 H 118.10207613621853 105.73768808432925 147.19008013457855 H 0.0 **** 0.06
13099 H 118.09853782806383 105.0770947449891 145.5368264382125 H 0.0 **** 0.06
13100 H 119.13031712800986 104.3419555133946 146.78703187518488 H 0.0 **** 0.06
13101 C 232.70455259950305 178.1388856647681 118.87606195236515 C 0.0 **** -0.24
13102 H 232.42709947317317 177.41683941435335 119.6436943767846 H 0.0 **** 0.06
13103 H 232.33916984243277 179.12707052827903 119.15692258176941 H 0.0 **** 0.06
13104 H 232.2626852108058 177.84505041709096 117.92431218463562 H 0.0 **** 0.06
13105 H 233.79082596671958 178.16731358712394 118.77931168631503 H 0.0 **** 0.06
13106 C 44.927430230507255 235.0295054688347 26.978498954080365 C 0.0 **** -0.24
13107 H 44.66758878703759 236.03219334291597 27.316864161446503 H 0.0 **** 0.06
13108 H 44.73112707646304 234.31417237426626 27.7773939460251 H 0.0 **** 0.06
13109 H 45.98436689846541 234.99799675696994 26.71404357128283 H 0.0 **** 0.06
13110 H 44.326638160062956 234.77365940118665 26.105694137567028 H 0.0 **** 0.06
13111 C 195.5836022207205 225.49031079749835 242.89521813206807 C 0.0 **** -0.24
13112 H 194.66184033308284 225.58828861123953 242.3212059843563 H 0.0 **** 0.06
13113 H 196.42573823421952 225.37089708020795 242.21351668084708 H 0.0 **** 0.06
13114 H 195.515054349663 224.61861145281947 243.54571563940192 H 0.0 **** 0.06
13115 H 195.7294807282517 226.384974213058 243.50161603427168 H 0.0 **** 0.06
13116 C 186.74916808496744 169.59386436880706 193.03065648236594 C 0.0 **** -0.24
13117 H 186.07849185964002 168.86742558170923 192.5718834912658 H 0.0 **** 0.06
13118 H 186.25774177649893 170.5660298097715 193.0720824395143 H 0.0 **** 0.06
13119 H 187.66016768780926 169.6711062562163 192.43698065685717 H 0.0 **** 0.06
13120 H 186.99908361530893 169.2691741496217 194.04088816950116 H 0.0 **** 0.06
13121 C 7.331342417840602 247.27500575769056 116.71977776706072 C 0.0 **** -0.24
13122 H 8.407691381893216 247.2850011877403 116.5496438114445 H 0.0 **** 0.06
13123 H 6.976236545779642 246.24433179762457 116.73658795039816 H 0.0 **** 0.06
13124 H 6.832919833401633 247.81880319245062 115.9170026733666 H 0.0 **** 0.06
13125 H 7.109783190940476 247.7521965603873 117.67379978184917 H 0.0 **** 0.06
13126 C 16.209817862407064 246.4022469057214 4.429852793175456 C 0.0 **** -0.24
13127 H 15.130630602011422 246.44759127605818 4.283687428701384 H 0.0 **** 0.06
13128 H 16.42639241263376 246.24452207138208 5.4865423940180875 H 0.0 **** 0.06
13129 H 16.660953647283606 247.33825664874024 4.101721987108732 H 0.0 **** 0.06
13130 H 16.62125617972653 245.57693949813932 3.847032252637888 H 0.0 **** 0.06
13131 C 154.06306355545462 78.25855949438886 151.10113720815187 C 0.0 **** -0.24
13132 H 155.0023011205903 78.75680236677198 150.8618039646841 H 0.0 **** 0.06
13133 H 153.3255685111684 78.48200633739586 150.32920770836742 H 0.0 **** 0.06
13134 H 153.69870701345204 78.6152404614123 152.06540044163978 H 0.0 **** 0.06
13135 H 154.22420374852317 77.1821574750224 151.15036209511916 H 0.0 **** 0.06
13136 C 220.43595987615913 159.08216727897673 77.92572433337332 C 0.0 **** -0.24
13137 H 221.27463616833998 159.71304170348327 78.21951865348186 H 0.0 **** 0.06
13138 H 220.6109629072335 158.06282765978816 78.26822431591992 H 0.0 **** 0.06
13139 H 220.33940417396292 159.08944335187195 76.83945703829241 H 0.0 **** 0.06
13140 H 219.51943534916887 159.46456383353558 78.3739131618253 H 0.0 **** 0.06
13141 C 165.50022832262337 116.40678594759677 142.00251024709715 C 0.0 **** -0.24
13142 H 166.07723570587973 116.1398776828332 142.88791638391078 H 0.0 **** 0.06
13143 H 166.1800795179387 116.62905926813667 141.1796794639931 H 0.0 **** 0.06
13144 H 164.89015061227195 117.28426529608655 142.217881446919 H 0.0 **** 0.06
13145 H 164.85400486365523 115.57338754279598 141.7251820689132 H 0.0 **** 0.06
13146 C 160.79138614193678 225.74293952103926 223.8588866067327 C 0.0 **** -0.24
13147 H 161.47454199514075 225.6783399893406 223.01114692748894 H 0.0 **** 0.06
13148 H 159.98695265524984 225.0170202132859 223.73223151302068 H 0.0 **** 0.06
13149 H 160.3708647227087 226.74661229482433 223.91014336962212 H 0.0 **** 0.06
13150 H 161.33339045689937 225.52708795034442 224.77964118396915 H 0.0 **** 0.06
13151 C 30.07342709619573 67.42042682245824 231.34179029408227 C 0.0 **** -0.24
13152 H 31.157402103761257 67.52658228336844 231.39225589729878 H 0.0 **** 0.06
13153 H 29.821516015078515 66.58245536315573 230.69150019432257 H 0.0 **** 0.06
13154 H 29.637534833981903 68.33489989089415 230.94118388035866 H 0.0 **** 0.06
13155 H 29.679625273507924 67.23630059388395 232.3411141759425 H 0.0 **** 0.06
13156 C 145.1817654676463 110.5292394558015 62.722020932758795 C 0.0 **** -0.24
13157 H 144.70224161584608 110.71147279102885 61.76018650945909 H 0.0 **** 0.06
13158 H 144.81408316586607 109.59057082891675 63.13798188608939 H 0.0 **** 0.06
13159 H 144.94856796361833 111.3458638711434 63.40413605661769 H 0.0 **** 0.06
13160 H 146.26065622391133 110.46771933505622 62.58379442264015 H 0.0 **** 0.06
13161 C 155.459509297185 68.95360277060115 243.7326695369295 C 0.0 **** -0.24
13162 H 154.93770840909414 68.35766184350098 242.9844377509392 H 0.0 **** 0.06
13163 H 154.87191702976304 68.98172932198275 244.64984824653027 H 0.0 **** 0.06
13164 H 155.59642779588492 69.96853762287762 243.35800949077907 H 0.0 **** 0.06
13165 H 156.4323110118126 68.50776314378086 243.93788018896254 H 0.0 **** 0.06
13166 C 142.2306670196095 68.31397687171625 73.51258825802552 C 0.0 **** -0.24
13167 H 141.59162371304356 69.17364299528151 73.71467333596252 H 0.0 **** 0.06
13168 H 142.27516690087168 67.67810893498236 74.39675356847766 H 0.0 **** 0.06
13169 H 143.23374511932732 68.65956705307994 73.26125515648346 H 0.0 **** 0.06
13170 H 141.8226449256117 67.74729124180001 72.67647407738559 H 0.0 **** 0.06
13171 C 64.69040484599313 159.10335679321653 240.36218785348416 C 0.0 **** -0.24
13172 H 65.00264744123007 159.18092899783923 239.32130713381605 H 0.0 **** 0.06
13173 H 63.601887964913885 159.10770194322967 240.41625896866333 H 0.0 **** 0.06
13174 H 65.08599732211746 159.95090452895462 240.9237909323881 H 0.0 **** 0.06
13175 H 65.07168062266254 158.1756774637686 240.78896228200006 H 0.0 **** 0.06
13176 C 145.14048553589427 70.43951108657242 81.2467487781532 C 0.0 **** -0.24
13177 H 145.47414948624836 70.49455730669314 82.28292484917549 H 0.0 **** 0.06
13178 H 145.8882741532685 69.9128276974057 80.6520737568274 H 0.0 **** 0.06
13179 H 145.00837202377957 71.44752612260939 80.85341141957682 H 0.0 **** 0.06
13180 H 144.19284586936257 69.90352394602775 81.19686477659096 H 0.0 **** 0.06
13181 C 133.19592898621735 131.8572151567782 62.70029078845434 C 0.0 **** -0.24
13182 H 133.69122944749236 131.93187428779024 61.73268134909509 H 0.0 **** 0.06
13183 H 133.29618542556202 130.84133460525868 63.083299831265464 H 0.0 **** 0.06
13184 H 132.13843491132397 132.10008131302615 62.58626929066952 H 0.0 **** 0.06
13185 H 133.65508947384427 132.55659062055366 63.39841339143862 H 0.0 **** 0.06
13186 C 162.37694363784303 2.132751011421547 179.13865903055554 C 0.0 **** -0.24
13187 H 163.12096900918866 2.3478494141298114 178.37245835101098 H 0.0 **** 0.06
13188 H 161.38630874882543 2.399124582406003 178.76991086690262 H 0.0 **** 0.06
13189 H 162.59952949932156 2.712427339974937 180.03423228425677 H 0.0 **** 0.06
13190 H 162.40079278572657 1.0699987643352387 179.37987770611173 H 0.0 **** 0.06
13191 C 22.66433144220619 132.60445663774757 104.4553227667916 C 0.0 **** -0.24
13192 H 23.472601649742685 132.31112375069296 103.78523048909787 H 0.0 **** 0.06
13193 H 22.907859337319934 132.30231515718017 105.474127587901 H 0.0 **** 0.06
13194 H 21.73945438303393 132.1178259164698 104.14350463297225 H 0.0 **** 0.06
13195 H 22.53495240085644 133.6862205689658 104.41674255010781 H 0.0 **** 0.06
13196 C 124.64183421160374 213.46055526833965 44.085225756488086 C 0.0 **** -0.24
13197 H 124.74652146335725 214.46355672942906 44.4991873726982 H 0.0 **** 0.06
13198 H 123.97182888530273 213.49045091558287 43.22513582153563 H 0.0 **** 0.06
13199 H 124.2286557608299 212.79638817921074 44.84462763869979 H 0.0 **** 0.06
13200 H 125.61862196414333 213.09316334727367 43.772490372952944 H 0.0 **** 0.06
13201 C 246.18634595440577 74.5831919584011 152.4032525345278 C 0.0 **** -0.24
13202 H 247.25702941739866 74.71574378699083 152.2480478210808 H 0.0 **** 0.06
13203 H 246.0059468905195 73.62930280992913 152.8984618186906 H 0.0 **** 0.06
13204 H 245.67560373995286 74.59623226249951 151.439828992825 H 0.0 **** 0.06
13205 H 245.80672616736302 75.39405156108711 153.0254768490212 H 0.0 **** 0.06
13206 C 156.64959073234292 129.31756497975184 125.28378108365234 C 0.0 **** -0.24
13207 H 157.33907729446716 128.48867817047469 125.12320553026157 H 0.0 **** 0.06
13208 H 155.7413535272661 128.94671130004127 125.76076044848031 H 0.0 **** 0.06
13209 H 156.3973697338815 129.77074305768804 124.32517023200569 H 0.0 **** 0.06
13210 H 157.1191633857608 130.06215105075395 125.92561802789999 H 0.0 **** 0.06
13211 C 49.04913999969605 20.05121957415753 111.0470942701615 C 0.0 **** -0.24
13212 H 48.6295714491591 19.429357763953277 111.837669178765 H 0.0 **** 0.06
13213 H 48.375168715773356 20.055923553447613 110.19111112837783 H 0.0 **** 0.06
13214 H 50.016990058209245 19.649873880973104 110.74478899640084 H 0.0 **** 0.06
13215 H 49.17769241784654 21.06907644491349 111.41543003645717 H 0.0 **** 0.06
13216 C 11.607832481296853 98.02388050476526 33.02313672332325 C 0.0 **** -0.24
13217 H 11.142939035727835 98.02085961214377 32.03656410017172 H 0.0 **** 0.06
13218 H 12.681315503936375 97.86196558781526 32.917598367343814 H 0.0 **** 0.06
13219 H 11.1778147540672 97.22749805143596 33.629933480030715 H 0.0 **** 0.06
13220 H 11.431033941096047 98.98527755350844 33.504469821442655 H 0.0 **** 0.06
13221 C 185.18987047907171 61.750540466423985 205.60915755798305 C 0.0 **** -0.24
13222 H 185.9333084609745 61.145576916036845 205.09013189533232 H 0.0 **** 0.06
13223 H 185.07595890166306 62.70533987384894 205.0957972423247 H 0.0 **** 0.06
13224 H 185.51710171894064 61.926011191094915 206.63518696003436 H 0.0 **** 0.06
13225 H 184.23477818727073 61.22585143274938 205.61720093407905 H 0.0 **** 0.06
13226 C 37.10317515928304 165.5605031021373 188.56052320786924 C 0.0 **** -0.24
13227 H 37.698237632062515 166.4190106716879 188.87260329328888 H 0.0 **** 0.06
13228 H 37.325381182220426 164.71073604712117 189.207053190199 H 0.0 **** 0.06
13229 H 37.34506411468442 165.30687297663044 187.5295105796384 H 0.0 **** 0.06
13230 H 36.04374752445855 165.80635221547956 188.63575533432518 H 0.0 **** 0.06
13231 C 70.30317612845135 125.72983871220427 55.37181479732379 C 0.0 **** -0.24
13232 H 69.61010950837982 125.47031831960234 54.572564911904294 H 0.0 **** 0.06
13233 H 69.8000594747686 126.37184387539227 56.09499636103516 H 0.0 **** 0.06
13234 H 71.16037327034647 126.25638076866952 54.95244373270944 H 0.0 **** 0.06
13235 H 70.64332084303209 124.82005232566982 55.86753839297762 H 0.0 **** 0.06
13236 C 232.59324741036704 220.38246351990193 190.42558925455705 C 0.0 **** -0.24
13237 H 232.28054287144323 221.3054187172849 189.9380411681844 H 0.0 **** 0.06
13238 H 232.62477999421242 219.57720394696992 189.69221330909812 H 0.0 **** 0.06
13239 H 231.88431236075832 220.12953246158997 191.21456995995584 H 0.0 **** 0.06
13240 H 233.58469656044477 220.51852218073284 190.85912034413153 H 0.0 **** 0.06
13241 C 12.007050763880926 233.8408317922106 40.9146561692817 C 0.0 **** -0.24
13242 H 10.963405041338362 233.69123904611013 40.63859244095164 H 0.0 **** 0.06
13243 H 12.0790556559174 233.9957985576186 41.99164789441744 H 0.0 **** 0.06
13244 H 12.397811136313535 234.7154359752176 40.3946567243716 H 0.0 **** 0.06
13245 H 12.58658858129499 232.96192535378233 40.633948224375914 H 0.0 **** 0.06
13246 C 85.4694949855498 65.99565637921054 40.37600158084629 C 0.0 **** -0.24
13247 H 85.76626384064821 67.02631809707393 40.180752400349974 H 0.0 **** 0.06
13248 H 84.70914959215773 65.69501097816507 39.65445338094739 H 0.0 **** 0.06
13249 H 85.06404283088779 65.91946601500706 41.38393815055329 H 0.0 **** 0.06
13250 H 86.33845514762396 65.34467769998125 40.282435773700314 H 0.0 **** 0.06
13251 C 63.68050347015483 226.37245238099763 226.3080860851785 C 0.0 **** -0.24
13252 H 62.80283385322164 226.99995083370095 226.4681433241517 H 0.0 **** 0.06
13253 H 64.05807033523115 226.02561646591442 227.27082992197103 H 0.0 **** 0.06
13254 H 64.45188787982354 226.950862263298 225.80118308218817 H 0.0 **** 0.06
13255 H 63.40585808173185 225.51473980504286 225.69414666150396 H 0.0 **** 0.06
13256 C 114.06207849904101 46.61351237910753 185.15251441830338 C 0.0 **** -0.24
13257 H 113.16070821768324 47.12912509388504 184.81970708234076 H 0.0 **** 0.06
13258 H 113.93915815404014 46.29770292490983 186.18826754616356 H 0.0 **** 0.06
13259 H 114.91446311513312 47.28908148447327 185.07757828739045 H 0.0 **** 0.06
13260 H 114.23442136835766 45.74035711733741 184.52355942051594 H 0.0 **** 0.06
13261 C 206.3703388734229 39.12298515693344 244.59038494455217 C 0.0 **** -0.24
13262 H 205.49477220705876 38.7478439736487 245.1199231122605 H 0.0 **** 0.06
13263 H 206.6337547137503 40.10758627222965 244.97830545139502 H 0.0 **** 0.06
13264 H 206.14625887784638 39.20000131209903 243.52702836067112 H 0.0 **** 0.06
13265 H 207.20561917316417 38.43833410044277 244.7371579652193 H 0.0 **** 0.06
13266 C 220.8277164012907 75.41730024364378 30.016507980726033 C 0.0 **** -0.24
13267 H 221.75487660831803 75.33116032645103 30.582134556559865 H 0.0 **** 0.06
13268 H 220.67106897594283 74.50854130913365 29.434185591021006 H 0.0 **** 0.06
13269 H 220.89128427014668 76.27279325882805 29.343796750365968 H 0.0 **** 0.06
13270 H 219.9933728582555 75.55644900555154 30.704549440960307 H 0.0 **** 0.06
13271 C 136.18845247920783 198.6099015359119 31.10150215338092 C 0.0 **** -0.24
13272 H 136.3408492940684 198.10785568933414 32.05729645906098 H 0.0 **** 0.06
13273 H 135.4731415320991 199.4226960644565 31.228890836375413 H 0.0 **** 0.06
13274 H 135.8030120506608 197.89554444649468 30.374286098754368 H 0.0 **** 0.06
13275 H 137.1370823396962 199.01264270684538 30.748563784715813 H 0.0 **** 0.06
13276 C 214.04742693776592 104.24037674064547 118.67354038382408 C 0.0 **** -0.24
13277 H 213.72079486959868 105.2783893871308 118.61232923355735 H 0.0 **** 0.06
13278 H 215.1341296084009 104.20481393996121 118.75188043780648 H 0.0 **** 0.06
13279 H 213.7300588717605 103.70588487364392 117.77761095943109 H 0.0 **** 0.06
13280 H 213.60338561666126 103.77068098683426 119.55190749663566 H 0.0 **** 0.06
13281 C 10.88518321419096 53.32762456693152 71.47997595198191 C 0.0 **** -0.24
13282 H 10.521313243413687 52.71309595774969 72.30427069029375 H 0.0 **** 0.06
13283 H 10.041530567090575 53.66005296208223 70.87550168639115 H 0.0 **** 0.06
13284 H 11.566733498280797 52.74200419888783 70.86344569427126 H 0.0 **** 0.06
13285 H 11.411122494558612 54.19525654016266 71.87891981499877 H 0.0 **** 0.06
13286 C 93.94358141841155 33.31526935390852 64.02917593044864 C 0.0 **** -0.24
13287 H 94.42786474527347 34.04938556220273 63.38587459109107 H 0.0 **** 0.06
13288 H 93.04195582114332 32.943729673341096 63.540128757893626 H 0.0 **** 0.06
13289 H 93.67569092368285 33.782168262352826 64.9771873570204 H 0.0 **** 0.06
13290 H 94.62604180092853 32.48611205409273 64.21172058978223 H 0.0 **** 0.06
13291 C 98.18338198854127 27.593748015163982 46.885454919749975 C 0.0 **** -0.24
13292 H 97.1735884127907 27.682672168650782 47.2860632048733 H 0.0 **** 0.06
13293 H 98.8953643197934 27.998258522243162 47.6044180428658 H 0.0 **** 0.06
13294 H 98.252813867453 28.150924589028563 45.95118459001441 H 0.0 **** 0.06
13295 H 98.40911309193848 26.544023911942332 46.699706869778026 H 0.0 **** 0.06
13296 C 27.478331715030635 237.34129121543643 66.29119053231238 C 0.0 **** -0.24
13297 H 27.489741429833344 237.38359404007142 65.20191009923369 H 0.0 **** 0.06
13298 H 26.446904513363876 237.307027197533 66.64213422369758 H 0.0 **** 0.06
13299 H 27.97049709076279 238.2268522898161 66.6937416462412 H 0.0 **** 0.06
13300 H 28.006187184568006 236.44779782408062 66.6249789901787 H 0.0 **** 0.06
13301 C 210.48833924263633 40.23735186722156 113.42411515408787 C 0.0 **** -0.24
13302 H 209.8169279967863 40.57864341812916 114.21281382729566 H 0.0 **** 0.06
13303 H 211.5216359611192 40.37300756864404 113.74469899468855 H 0.0 **** 0.06
13304 H 210.30911278142193 40.8160152277581 112.51827181542046 H 0.0 **** 0.06
13305 H 210.30554463287032 39.18136883575791 113.22396885376838 H 0.0 **** 0.06
13306 C 69.9761477711119 211.6268506117366 72.74121350877769 C 0.0 **** -0.24
13307 H 70.57720373997697 210.74038992746947 72.94589803458288 H 0.0 **** 0.06
13308 H 70.4555675182406 212.50072709624146 73.18307001394462 H 0.0 **** 0.06
13309 H 68.98298054152727 211.49921542915575 73.17203097010531 H 0.0 **** 0.06
13310 H 69.88921284668473 211.76573919722856 71.66355593344394 H 0.0 **** 0.06
13311 C 223.943370980407 232.9307200871269 143.3208501111334 C 0.0 **** -0.24
13312 H 223.57511555118396 232.8388465753645 144.342395881487 H 0.0 **** 0.06
13313 H 224.89787128496607 232.40993579993753 143.23190920790586 H 0.0 **** 0.06
13314 H 224.07981587281893 233.98306291885328 143.07656359556623 H 0.0 **** 0.06
13315 H 223.2229870115077 232.48733064961758 142.6342524836829 H 0.0 **** 0.06
13316 C 23.838497760549842 67.22429302563228 202.32321019939275 C 0.0 **** -0.24
13317 H 23.406650763073273 66.55341648300154 201.5800881292459 H 0.0 **** 0.06
13318 H 23.039624110618675 67.67633714844405 202.9111919789724 H 0.0 **** 0.06
13319 H 24.406149456102952 68.00685957632263 201.81868693348093 H 0.0 **** 0.06
13320 H 24.500921459068337 66.66061176973741 202.97994443171655 H 0.0 **** 0.06
13321 C 158.73383465115225 145.83218480910443 86.19631243522718 C 0.0 **** -0.24
13322 H 159.7155156198016 146.3042616701439 86.19019137299225 H 0.0 **** 0.06
13323 H 158.24009247256865 146.03372233842168 87.14741435568251 H 0.0 **** 0.06
13324 H 158.84792098841487 144.7558170582764 86.0659308937617 H 0.0 **** 0.06
13325 H 158.13180952382376 146.23493816957586 85.38171311847216 H 0.0 **** 0.06
13326 C 5.410284296996323 41.11849640922905 215.47407133994736 C 0.0 **** -0.24
13327 H 5.160383153443846 41.325909487160246 216.51409768244764 H 0.0 **** 0.06
13328 H 4.941552577625643 41.86527124481056 214.8318661500946 H 0.0 **** 0.06
13329 H 5.045553648740665 40.127177454672506 215.20435323269072 H 0.0 **** 0.06
13330 H 6.491729622545151 41.154809736750636 215.34516085590752 H 0.0 **** 0.06
13331 C 99.32467362557733 54.63720431240023 107.64298296203734 C 0.0 **** -0.24
13332 H 98.98721618113544 54.72062075663291 106.60962254833964 H 0.0 **** 0.06
13333 H 100.41328006211168 54.69112852591846 107.6750576145015 H 0.0 **** 0.06
13334 H 98.99548987247323 53.68456517282374 108.0564249567361 H 0.0 **** 0.06
13335 H 98.90291346221707 55.453689238898505 108.22922975268767 H 0.0 **** 0.06
13336 C 36.86956323518419 228.0435699908832 169.66584494287073 C 0.0 **** -0.24
13337 H 37.85655628363712 228.37962412019274 169.9817767422021 H 0.0 **** 0.06
13338 H 36.87043301632541 227.8757412122119 168.58850872767334 H 0.0 **** 0.06
13339 H 36.12983380246091 228.8040086009108 169.91418150159527 H 0.0 **** 0.06
13340 H 36.62102946764419 227.1144402569481 170.17812364329353 H 0.0 **** 0.06
13341 C 137.22393384448515 70.70212432833915 194.46431190979735 C 0.0 **** -0.24
13342 H 136.41380245633755 70.34301250013115 195.09829171159578 H 0.0 **** 0.06
13343 H 137.91558017678614 69.88540092562329 194.2599181852745 H 0.0 **** 0.06
13344 H 137.754240330203 71.50822749958968 194.97357932456202 H 0.0 **** 0.06
13345 H 136.81277121523505 71.07478236669394 193.52538972907445 H 0.0 **** 0.06
13346 C 78.25089184927248 41.739281219840024 99.41085943818683 C 0.0 **** -0.24
13347 H 77.79046421192788 42.7255446328131 99.3626989814228 H 0.0 **** 0.06
13348 H 78.48809305037821 41.50000100565458 100.44813237792457 H 0.0 **** 0.06
13349 H 79.16638416318455 41.736509340567494 98.81908945662434 H 0.0 **** 0.06
13350 H 77.56006862451162 40.995164367804676 99.01447080137925 H 0.0 **** 0.06
13351 C 154.25792963073144 60.695948461101096 45.15205644319013 C 0.0 **** -0.24
13352 H 154.38125363147805 61.77875857516199 45.123455382100104 H 0.0 **** 0.06
13353 H 154.76043637208352 60.29604627809758 46.03247383442482 H 0.0 **** 0.06
13354 H 154.69357108304936 60.25716125913888 44.254246391911266 H 0.0 **** 0.06
13355 H 153.19660840872785 60.45273430745459 45.19697529328026 H 0.0 **** 0.06
13356 C 114.91036542883629 180.21318935555155 95.06363415633575 C 0.0 **** -0.24
13357 H 114.35643966182019 179.60353143233604 94.34947658647755 H 0.0 **** 0.06
13358 H 114.65518728749532 179.9058035644402 96.07797022703883 H 0.0 **** 0.06
13359 H 114.6481221908567 181.26261565823813 94.92487357011879 H 0.0 **** 0.06
13360 H 115.97991759928624 180.08202278614746 94.90107632158285 H 0.0 **** 0.06
13361 C 51.19422176264152 144.74615974365355 36.72026671538789 C 0.0 **** -0.24
13362 H 51.979829087602894 144.3084993477939 37.33551875294488 H 0.0 **** 0.06
13363 H 50.40828612856157 144.00872135069866 36.55678471014531 H 0.0 **** 0.06
13364 H 51.61200169372236 145.05148962543186 35.7610158827905 H 0.0 **** 0.06
13365 H 50.77687393099282 145.6149506812571 37.227928659528644 H 0.0 **** 0.06
13366 C 17.415877086208184 210.89646223503075 13.169341491647486 C 0.0 **** -0.24
13367 H 18.365801582447702 211.279022475309 13.541160899312302 H 0.0 **** 0.06
13368 H 16.728044822562325 211.7261579319095 13.00772344777019 H 0.0 **** 0.06
13369 H 16.99034264632462 210.20835730560933 13.900896432566213 H 0.0 **** 0.06
13370 H 17.579005674158097 210.37081552424416 12.228400382933302 H 0.0 **** 0.06
13371 C 4.427786866423759 22.883418186167006 52.65080318623845 C 0.0 **** -0.24
13372 H 4.310095628946755 21.82769760836183 52.40562690837541 H 0.0 **** 0.06
13373 H 3.445647098812657 23.34866599954077 52.73199132349512 H 0.0 **** 0.06
13374 H 5.00035988566006 23.376578941986878 51.864972937246336 H 0.0 **** 0.06
13375 H 4.956104401937097 22.978803512463998 53.60021500670237 H 0.0 **** 0.06
13376 C 247.6310744156607 172.05650632126066 6.777558708043955 C 0.0 **** -0.24
13377 H 247.43600218013464 171.89708803188057 5.716010205666009 H 0.0 **** 0.06
13378 H 247.23814277671622 171.21465330605034 7.348450822175749 H 0.0 **** 0.06
13379 H 247.14469505912885 172.97624038071191 7.101776143590229 H 0.0 **** 0.06
13380 H 248.70602554750138 172.1373162637099 6.939979118100879 H 0.0 **** 0.06
13381 C 35.36343461905477 97.97110605676161 197.60469214464746 C 0.0 **** -0.24
13382 H 36.22681260021537 98.59936268027118 197.82485719765614 H 0.0 **** 0.06
13383 H 35.02350487121171 98.16519599617473 196.5876993103008 H 0.0 **** 0.06
13384 H 34.56184280415431 98.19838556988131 198.30677913697755 H 0.0 **** 0.06
13385 H 35.644821773386525 96.92251027314737 197.70007934697963 H 0.0 **** 0.06
13386 C 125.92500687133747 116.88218172743342 224.49064476256882 C 0.0 **** -0.24
13387 H 126.84990803588983 117.45452478559866 224.5571189843251 H 0.0 **** 0.06
13388 H 125.31367373069168 117.27259718394399 223.67637874827972 H 0.0 **** 0.06
13389 H 125.37740937646137 116.96717875740876 225.42935827540998 H 0.0 **** 0.06
13390 H 126.15882352789174 115.83499779158069 224.30051549613543 H 0.0 **** 0.06
13391 C 120.06253110140918 245.96768283156194 100.13731147064348 C 0.0 **** -0.24
13392 H 120.43206935982255 245.37512531520565 99.29985959545647 H 0.0 **** 0.06
13393 H 120.72787623401302 246.8142711615695 100.30493789203521 H 0.0 **** 0.06
13394 H 120.0294507349046 245.3476418862073 101.03380156850343 H 0.0 **** 0.06
13395 H 119.06006329077297 246.3308236196753 99.910076726228 H 0.0 **** 0.06
13396 C 35.1538726368955 170.53887650914598 148.2645672963436 C 0.0 **** -0.24
13397 H 34.1905526651054 170.7641908419995 148.72319531777867 H 0.0 **** 0.06
13398 H 35.88530633474707 170.32455696967673 149.04258364035076 H 0.0 **** 0.06
13399 H 35.48590988070001 171.39643379117263 147.67941402976686 H 0.0 **** 0.06
13400 H 35.05079389409602 169.67140019794513 147.61255564547304 H 0.0 **** 0.06
13401 C 193.38486402304204 30.100963678670183 62.577825601383154 C 0.0 **** -0.24
13402 H 193.99441086384513 29.800341132520742 63.43029337656901 H 0.0 **** 0.06
13403 H 193.69267274165213 31.091339932121883 62.242758091688074 H 0.0 **** 0.06
13404 H 192.3360170688296 30.127669278997672 62.87350692942542 H 0.0 **** 0.06
13405 H 193.51533872232017 29.38544890033367 61.76649735987388 H 0.0 **** 0.06
13406 C 84.08374010940406 16.32985094126812 0.718488434370002 C 0.0 **** -0.24
13407 H 84.69935904136292 16.85207889965082 1.450303883080764 H 0.0 **** 0.06
13408 H 84.37726070363485 15.280090252861527 0.680138184129774 H 0.0 **** 0.06
13409 H 84.22480156362005 16.78245239398646 -0.2634846656156782 H 0.0 **** 0.06
13410 H 83.03582112901987 16.404744035031484 1.0061069111587528 H 0.0 **** 0.06
13411 C 248.18204150056357 55.33764289352061 30.56812841379532 C 0.0 **** -0.24
13412 H 249.1829011676101 54.934718024882216 30.4114661939645 H 0.0 **** 0.06
13413 H 248.16969890032908 55.93155798522062 31.482231852541176 H 0.0 **** 0.06
13414 H 247.47063703158884 54.516574688460935 30.657432693672746 H 0.0 **** 0.06
13415 H 247.90647354587406 55.96582751713754 29.721554175072455 H 0.0 **** 0.06
13416 C 6.540996984145437 21.236444660022045 93.443478120788 C 0.0 **** -0.24
13417 H 7.602208101373748 21.435991183905017 93.29816222760027 H 0.0 **** 0.06
13418 H 6.0660067895468615 22.108676772971208 93.89292559068744 H 0.0 **** 0.06
13419 H 6.419218644915105 20.3762678651037 94.10202993330338 H 0.0 **** 0.06
13420 H 6.075516106631795 21.025794037834345 92.48066378943619 H 0.0 **** 0.06
13421 C 100.76548650401384 193.03039704175404 157.24293221957743 C 0.0 **** -0.24
13422 H 101.24179316171137 192.2436771794085 156.6577490035052 H 0.0 **** 0.06
13423 H 100.05600007951648 193.57072648837584 156.61524305806412 H 0.0 **** 0.06
13424 H 101.52444850876523 193.72037063169523 157.6114708032865 H 0.0 **** 0.06
13425 H 100.2384082641226 192.5856949167955 158.08700456092814 H 0.0 **** 0.06
13426 C 195.8444544992277 201.73848177413217 98.10273382115594 C 0.0 **** -0.24
13427 H 195.25699889557052 200.82119893650076 98.14349752147405 H 0.0 **** 0.06
13428 H 195.94073413885297 202.06249420549895 97.06588486584945 H 0.0 **** 0.06
13429 H 196.83449648361358 201.5534089122653 98.51893025271787 H 0.0 **** 0.06
13430 H 195.34539636609452 202.51461469661933 98.6823442321184 H 0.0 **** 0.06
13431 C 37.06837914592937 19.19296105942621 9.503632361630622 C 0.0 **** -0.24
13432 H 37.62534514274793 20.116037512522524 9.660910136969761 H 0.0 **** 0.06
13433 H 37.44740390547463 18.421514293822753 10.173667200263338 H 0.0 **** 0.06
13434 H 37.18753922947383 18.868012761266556 8.469259574482436 H 0.0 **** 0.06
13435 H 36.01198786663177 19.367086237393693 9.7093468757636 H 0.0 **** 0.06
13436 C 173.1466517623817 31.71529503571506 157.73215045396887 C 0.0 **** -0.24
13437 H 173.83434713734835 31.59029137140581 158.56889039557538 H 0.0 **** 0.06
13438 H 172.9785693383787 32.77862765450331 157.5565667823721 H 0.0 **** 0.06
13439 H 172.19940241628908 31.229647570314143 157.96377249930683 H 0.0 **** 0.06
13440 H 173.57816701509708 31.263261969300913 156.83813351946543 H 0.0 **** 0.06
13441 C 232.01399074064545 239.2731869056357 5.763327807681861 C 0.0 **** -0.24
13442 H 232.31207176746636 239.00292771511596 4.7501919615479125 H 0.0 **** 0.06
13443 H 232.48385621241667 240.21729600741315 6.040253823537782 H 0.0 **** 0.06
13444 H 232.3291012258882 238.4925112139468 6.454991314201209 H 0.0 **** 0.06
13445 H 230.9293003388262 239.3808922162427 5.805516492792222 H 0.0 **** 0.06
13446 C 242.352936354242 174.22242176801353 121.6870302743377 C 0.0 **** -0.24
13447 H 242.26862349715665 173.24427286287528 121.21320685429149 H 0.0 **** 0.06
13448 H 241.82614481333462 174.2098624864338 122.64131404140599 H 0.0 **** 0.06
13449 H 241.91365553091075 174.97963192083574 121.03816533881988 H 0.0 **** 0.06
13450 H 243.40527825564266 174.45311092739595 121.85490406730258 H 0.0 **** 0.06
13451 C 189.91862326125073 78.19639791452457 20.448149546564878 C 0.0 **** -0.24
13452 H 190.7474364134252 77.48812250364784 20.423648919436303 H 0.0 **** 0.06
13453 H 189.20542510465714 77.89369917994955 21.214656840553957 H 0.0 **** 0.06
13454 H 189.42542243248903 78.21053143592394 19.476422861117143 H 0.0 **** 0.06
13455 H 190.29859604516514 79.19177291809928 20.677476499366946 H 0.0 **** 0.06
13456 C 208.83465118607347 85.51195706778668 43.08486994654466 C 0.0 **** -0.24
13457 H 209.01711622730926 85.51114123563465 42.01015583843723 H 0.0 **** 0.06
13458 H 207.79153813725065 85.76701077379212 43.27606973468292 H 0.0 **** 0.06
13459 H 209.48134679956962 86.24748953492218 43.561714080126336 H 0.0 **** 0.06
13460 H 209.04751999590923 84.52242906908015 43.489599214575264 H 0.0 **** 0.06
13461 C 71.69234900312702 116.78188921422884 114.41026064413447 C 0.0 **** -0.24
13462 H 72.16102243255335 116.62152325928608 115.38153071588661 H 0.0 **** 0.06
13463 H 72.18870538379073 117.60650109552091 113.89971961053661 H 0.0 **** 0.06
13464 H 70.63885060002156 117.02304990988486 114.55138187188797 H 0.0 **** 0.06
13465 H 71.7802074034532 115.87599163772987 113.8105048178306 H 0.0 **** 0.06
13466 C 88.78150832434522 105.22375801821426 131.68215754263744 C 0.0 **** -0.24
13467 H 88.8614241383869 106.12695918932354 132.28745224812522 H 0.0 **** 0.06
13468 H 88.09873758356994 105.40296147556444 130.85173487711464 H 0.0 **** 0.06
13469 H 88.40215904728754 104.40757617636436 132.29642286727622 H 0.0 **** 0.06
13470 H 89.76560929298435 104.95973351981885 131.29377509503294 H 0.0 **** 0.06
13471 C 0.0008021131096285217 174.0362008249528 39.394488565475044 C 0.0 **** -0.24
13472 H 0.8679329335683832 174.23075737604398 38.76357141165464 H 0.0 **** 0.06
13473 H -0.382756641681965 173.03680171257253 39.18680930786374 H 0.0 **** 0.06
13474 H -0.7734012407748452 174.7732847264462 39.18263943803149 H 0.0 **** 0.06
13475 H 0.291175183681176 174.10398877917015 40.44271317792834 H 0.0 **** 0.06
13476 C 177.8284712109194 124.93764838224445 193.35312989601258 C 0.0 **** -0.24
13477 H 176.90635200024707 124.35670447305117 193.32626153517734 H 0.0 **** 0.06
13478 H 177.78603668770523 125.72069943736082 192.59580042384368 H 0.0 **** 0.06
13479 H 178.67650809358156 124.28363960506468 193.15286376472852 H 0.0 **** 0.06
13480 H 177.94297054150502 125.3909232053881 194.33780365290903 H 0.0 **** 0.06
13481 C 82.00156578320576 6.856351014216813 10.644609600976679 C 0.0 **** -0.24
13482 H 81.52628568670414 6.198842706981182 9.916260625099127 H 0.0 **** 0.06
13483 H 83.07670999517228 6.67628742375625 10.648015260765774 H 0.0 **** 0.06
13484 H 81.59559293156076 6.653315173272617 11.635647471574273 H 0.0 **** 0.06
13485 H 81.80686731380743 7.8946706544924155 10.378178767636314 H 0.0 **** 0.06
13486 C 120.29545843459513 218.8095783300262 180.24771257363489 C 0.0 **** -0.24
13487 H 121.25777007164908 218.48508371444348 179.8510614268418 H 0.0 **** 0.06
13488 H 119.53469760028062 218.06635192926313 180.0072337851579 H 0.0 **** 0.06
13489 H 120.02315494166692 219.76503607508104 179.80085928584498 H 0.0 **** 0.06
13490 H 120.36697247956894 218.9202281682108 181.3287264046104 H 0.0 **** 0.06
13491 C 195.59932850548904 225.4330144063549 143.93999318792999 C 0.0 **** -0.24
13492 H 195.7598169746291 225.16336908744302 142.8964820881877 H 0.0 **** 0.06
13493 H 194.91855947996277 226.2826741510379 143.99549476063171 H 0.0 **** 0.06
13494 H 196.55218635027774 225.69965942142716 144.39707406833628 H 0.0 **** 0.06
13495 H 195.16620781687283 224.58462615269383 144.47176797958664 H 0.0 **** 0.06
13496 C 90.25512222659125 212.78397972917384 139.96353337596025 C 0.0 **** -0.24
13497 H 89.83117213423284 211.78722845008073 139.8380033610144 H 0.0 **** 0.06
13498 H 89.70829111554755 213.31603160044892 140.74166261093086 H 0.0 **** 0.06
13499 H 90.17708272688117 213.33173648962708 139.02430340484037 H 0.0 **** 0.06
13500 H 91.30389576852534 212.69880062633854 140.24804374040443 H 0.0 **** 0.06
13501 C 174.7936341235274 97.40021019573544 25.09429583511664 C 0.0 **** -0.24
13502 H 174.04634928718102 97.018287083004 24.39916083194342 H 0.0 **** 0.06
13503 H 174.31771596306595 98.07865872938308 25.802641841734697 H 0.0 **** 0.06
13504 H 175.5647736016721 97.93523448732043 24.540977236436305 H 0.0 **** 0.06
13505 H 175.24491347637513 96.5684430798791 25.63556008035539 H 0.0 **** 0.06
13506 C 39.673064839056735 217.8263123703137 87.63234773862615 C 0.0 **** -0.24
13507 H 39.260792888208954 217.8142601594767 86.62307465463303 H 0.0 **** 0.06
13508 H 39.34145780633692 218.72650330378673 88.1492651618504 H 0.0 **** 0.06
13509 H 40.761990340374425 217.81668347594461 87.57975390779211 H 0.0 **** 0.06
13510 H 39.32815540014104 216.94646118699836 88.17551340716756 H 0.0 **** 0.06
13511 C 179.57835242096746 143.08319734559709 209.98967111048327 C 0.0 **** -0.24
13512 H 179.7351836775008 142.47403146530803 210.87943650040572 H 0.0 **** 0.06
13513 H 179.70403645414552 142.46513197211746 209.09984623926263 H 0.0 **** 0.06
13514 H 180.3059473201974 143.89506499296334 209.9734180646657 H 0.0 **** 0.06
13515 H 178.5705683416624 143.4977975676096 210.00590291177977 H 0.0 **** 0.06
13516 C 66.2405247828977 213.5668484043655 68.4128547032341 C 0.0 **** -0.24
13517 H 66.13471367786806 214.56114596976633 67.97938852602405 H 0.0 **** 0.06
13518 H 67.06467245509452 213.04472088759576 67.9268577495533 H 0.0 **** 0.06
13519 H 65.31762160250116 213.00656472538495 68.26588028497011 H 0.0 **** 0.06
13520 H 66.44649401286136 213.6564559238447 69.4801872441499 H 0.0 **** 0.06
13521 C 152.83989542387343 130.87782888623497 40.880609047157506 C 0.0 **** -0.24
13522 H 153.1704921100609 129.86888850721706 40.633033369706055 H 0.0 **** 0.06
13523 H 151.8608145843657 130.83113560135703 41.35773064491352 H 0.0 **** 0.06
13524 H 152.77286306511465 131.47249713309546 39.969321544419586 H 0.0 **** 0.06
13525 H 153.55520859719337 131.3364304314283 41.56295958089309 H 0.0 **** 0.06
13526 C 238.04236618444375 169.27213759656638 26.374942886640426 C 0.0 **** -0.24
13527 H 237.32273950974556 168.51614990310517 26.68940373800129 H 0.0 **** 0.06
13528 H 237.64747947481197 169.8142237683806 25.51588081973145 H 0.0 **** 0.06
13529 H 238.98077132345492 168.78981000661076 26.101490040065542 H 0.0 **** 0.06
13530 H 238.2181243401119 169.96869937367492 27.1951802535027 H 0.0 **** 0.06
13531 C 39.88736473795291 222.79499903914427 148.52359490972628 C 0.0 **** -0.24
13532 H 39.54342634403477 221.78936848078473 148.2817765275751 H 0.0 **** 0.06
13533 H 40.53981950206986 223.15691012091543 147.72889010919252 H 0.0 **** 0.06
13534 H 40.436358299054945 222.77387562270167 149.46460789201095 H 0.0 **** 0.06
13535 H 39.02727785835654 223.4584622799888 148.61842984353873 H 0.0 **** 0.06
13536 C 196.7065420319909 75.0801650573008 47.22597062099622 C 0.0 **** -0.24
13537 H 196.29552996796292 75.27181584585665 48.216905342737064 H 0.0 **** 0.06
13538 H 196.65489187052526 74.01263863604629 47.01144749467721 H 0.0 **** 0.06
13539 H 197.74581807705516 75.40759081895237 47.19480584149656 H 0.0 **** 0.06
13540 H 196.13061851054132 75.6291294047129 46.481232541068124 H 0.0 **** 0.06
13541 C 229.17532371964998 163.88238720722924 8.984833346059332 C 0.0 **** -0.24
13542 H 228.38346978832175 163.2547522903907 9.395061749255305 H 0.0 **** 0.06
13543 H 229.0999880837174 163.89691407836955 7.897258481096529 H 0.0 **** 0.06
13544 H 230.14510642415675 163.48081355188782 9.277399008690125 H 0.0 **** 0.06
13545 H 229.07056375475162 164.89720004861775 9.370748922071229 H 0.0 **** 0.06
13546 C 207.14441051674157 235.00470864447436 71.67579469933119 C 0.0 **** -0.24
13547 H 206.75393239713895 234.83927961758403 72.67959380169094 H 0.0 **** 0.06
13548 H 207.35575604348503 234.04426100466844 71.20515473747875 H 0.0 **** 0.06
13549 H 208.06279135566376 235.58979221819294 71.7359646904176 H 0.0 **** 0.06
13550 H 206.40712604655283 235.54560529366506 71.08283012140487 H 0.0 **** 0.06
13551 C 22.126765842688656 4.151016571282412 29.437116122447406 C 0.0 **** -0.24
13552 H 22.273322565598804 3.759247356226723 28.430613972800955 H 0.0 **** 0.06
13553 H 22.24943173457548 3.3452231121692932 30.160902382597413 H 0.0 **** 0.06
13554 H 21.12223656226641 4.567111901200946 29.522592341689318 H 0.0 **** 0.06
13555 H 22.86156522295893 4.931585259560364 29.633388787796576 H 0.0 **** 0.06
13556 C 87.4219640470339 207.23263480513305 50.47981833627135 C 0.0 **** -0.24
13557 H 88.38574450482614 206.98314867497533 50.92233100016618 H 0.0 **** 0.06
13558 H 86.86341795931597 207.8732214504242 51.164265275790555 H 0.0 **** 0.06
13559 H 86.85790638594452 206.31770064002774 50.29717386571153 H 0.0 **** 0.06
13560 H 87.57887717026313 207.7579981639401 49.53774180946145 H 0.0 **** 0.06
13561 C 196.35879397112686 104.92770017990767 207.2342400834699 C 0.0 **** -0.24
13562 H 196.60600154426606 103.86810461832872 207.16095132816793 H 0.0 **** 0.06
13563 H 196.8523813732711 105.35624040856919 208.10704895564226 H 0.0 **** 0.06
13564 H 195.27983204186384 105.04285431458129 207.3338254341175 H 0.0 **** 0.06
13565 H 196.69856995258596 105.44281477266705 206.33602474028632 H 0.0 **** 0.06
13566 C 237.44552468041502 148.47327969214956 102.82117302842323 C 0.0 **** -0.24
13567 H 237.12531564348112 148.8773248945936 101.86042580719234 H 0.0 **** 0.06
13568 H 236.94364237769307 149.01183318320452 103.62650146060906 H 0.0 **** 0.06
13569 H 238.5244204745619 148.59039979193716 102.92218448834348 H 0.0 **** 0.06
13570 H 237.18810800343806 147.41606741621405 102.8744216374364 H 0.0 **** 0.06
13571 C 97.6683255033027 1.325161109245812 191.87462112396955 C 0.0 **** -0.24
13572 H 96.91251852230067 0.5608172352250165 191.697108285548 H 0.0 **** 0.06
13573 H 97.26670373651004 2.3027152884169197 191.60725367054735 H 0.0 **** 0.06
13574 H 98.5483256193192 1.11451415462696 191.2666669907645 H 0.0 **** 0.06
13575 H 97.94615105033165 1.3234430158983912 192.92922417490485 H 0.0 **** 0.06
13576 C 90.46831400721399 107.26389445913324 206.9009849077972 C 0.0 **** -0.24
13577 H 89.83606913166076 106.90935638668836 207.71431308891133 H 0.0 **** 0.06
13578 H 90.02354445761577 106.98172390920465 205.946353877522 H 0.0 **** 0.06
13579 H 91.45752947266269 106.814485930958 206.9876757727887 H 0.0 **** 0.06
13580 H 90.55562428188543 108.34852711591518 206.95485023648465 H 0.0 **** 0.06
13581 C 87.43260767820504 117.45241746232213 123.1209398543194 C 0.0 **** -0.24
13582 H 86.47377269389199 117.89846507779652 122.85633719195741 H 0.0 **** 0.06
13583 H 88.24135313399933 118.0901215208107 122.76340678580468 H 0.0 **** 0.06
13584 H 87.51499099415972 116.4684542566664 122.65911307975782 H 0.0 **** 0.06
13585 H 87.49989045033061 117.35217343044346 124.20411930818514 H 0.0 **** 0.06
13586 C 124.06062307558506 243.22181768693304 194.08296520111128 C 0.0 **** -0.24
13587 H 125.0694048512965 243.19881736224454 194.49451456346924 H 0.0 **** 0.06
13588 H 123.93496681903775 244.1214722212008 193.48011464083464 H 0.0 **** 0.06
13589 H 123.33600249082838 243.22502945978826 194.89649593204695 H 0.0 **** 0.06
13590 H 123.90209117337179 242.34214783892912 193.45933537401896 H 0.0 **** 0.06
13591 C 104.86502817085247 86.55410890458 105.29082238093014 C 0.0 **** -0.24
13592 H 104.69362597222806 85.83603405822569 104.48992578694407 H 0.0 **** 0.06
13593 H 104.19958727469839 87.40802590773453 105.16229713664981 H 0.0 **** 0.06
13594 H 105.9008282444533 86.8923024434487 105.25865238419578 H 0.0 **** 0.06
13595 H 104.66743933305185 86.08010973256333 106.25277041200363 H 0.0 **** 0.06
13596 C 212.58454527350324 4.158115392553938 155.25527204796043 C 0.0 **** -0.24
13597 H 212.36504170285713 4.586437820576663 154.27721547981892 H 0.0 **** 0.06
13598 H 213.638690251799 3.8833882775470414 155.3032298916636 H 0.0 **** 0.06
13599 H 211.97083067237998 3.2706419096181634 155.40818303504096 H 0.0 **** 0.06
13600 H 212.3639224696737 4.891557832459043 156.0302877424084 H 0.0 **** 0.06
13601 C 152.68869605448273 58.149860795895904 49.836538362398215 C 0.0 **** -0.24
13602 H 152.54846676655595 59.16539329974876 49.46546282429156 H 0.0 **** 0.06
13603 H 153.59706107671164 58.10523221954659 50.43770626714516 H 0.0 **** 0.06
13604 H 152.77695729508193 57.464079082835184 48.99332843948224 H 0.0 **** 0.06
13605 H 151.83237779487763 57.86537262278691 50.44751305979446 H 0.0 **** 0.06
13606 C 240.69525713272503 86.56553876317426 151.40043553586673 C 0.0 **** -0.24
13607 H 239.8785972992349 86.59831650022059 150.6795743141667 H 0.0 **** 0.06
13608 H 241.38802143209415 85.76877636294608 151.12841370136383 H 0.0 **** 0.06
13609 H 240.29369948186877 86.37473985506281 152.39528014263126 H 0.0 **** 0.06
13610 H 241.22064276500095 87.5211940746629 151.39736244352022 H 0.0 **** 0.06
13611 C 125.48928648816636 135.597363070949 80.84378390467057 C 0.0 **** -0.24
13612 H 126.2613787358458 135.14586734716576 80.22149720796634 H 0.0 **** 0.06
13613 H 124.57937265101916 134.9994300155878 80.78586632245796 H 0.0 **** 0.06
13614 H 125.28282399833336 136.60788732308117 80.48998939720323 H 0.0 **** 0.06
13615 H 125.83300289010688 135.63782036508874 81.87726627467708 H 0.0 **** 0.06
13616 C 42.16572057437199 163.28770240514822 213.99965942564518 C 0.0 **** -0.24
13617 H 42.15866482393207 162.96728919593824 215.04114833777732 H 0.0 **** 0.06
13618 H 41.55470400805049 164.18402053034455 213.89007316121098 H 0.0 **** 0.06
13619 H 41.761595988971834 162.49316682957078 213.37178912478578 H 0.0 **** 0.06
13620 H 43.18993305626938 163.50611349784174 213.6946840637517 H 0.0 **** 0.06
13621 C 149.3317361569182 175.19664831010226 117.60643451683629 C 0.0 **** -0.24
13622 H 149.56729757565844 174.58953916924466 118.48033718588349 H 0.0 **** 0.06
13623 H 149.55424670541615 174.63250264235177 116.70056847101571 H 0.0 **** 0.06
13624 H 149.93032754630804 176.1072880900585 117.62443748316352 H 0.0 **** 0.06
13625 H 148.2736636944712 175.4584622827511 117.62115452785733 H 0.0 **** 0.06
13626 C 245.42497226303743 159.85581056178782 222.8355388684788 C 0.0 **** -0.24
13627 H 244.35716106264027 159.7776802458253 222.63096989776494 H 0.0 **** 0.06
13628 H 245.82552672346154 158.86649308676323 223.05835860300675 H 0.0 **** 0.06
13629 H 245.58383496510984 160.51374748371055 223.68995809706757 H 0.0 **** 0.06
13630 H 245.9323741545776 160.26468509108054 221.96208737958256 H 0.0 **** 0.06
13631 C 57.551981960570856 100.77506384618033 55.95365763875316 C 0.0 **** -0.24
13632 H 57.845506043817494 100.94387443156464 54.917219422928355 H 0.0 **** 0.06
13633 H 57.887158352665864 99.78675718586473 56.26972141245869 H 0.0 **** 0.06
13634 H 56.46704677933431 100.83649470140253 56.038742722915316 H 0.0 **** 0.06
13635 H 58.009680604857834 101.53446269479167 56.587505339066695 H 0.0 **** 0.06
13636 C 229.8540353396105 75.5578256706984 161.5096074725683 C 0.0 **** -0.24
13637 H 228.87723169981288 76.04154741174912 161.5246240650561 H 0.0 **** 0.06
13638 H 229.73182191565022 74.50116513265556 161.27049251973477 H 0.0 **** 0.06
13639 H 230.32430889615844 75.6574513172603 162.4881896548526 H 0.0 **** 0.06
13640 H 230.48180786224086 76.03130047498993 160.75494739311023 H 0.0 **** 0.06
13641 C 92.13978631414162 147.0323142462925 100.7010178870691 C 0.0 **** -0.24
13642 H 91.13509862174891 147.19649790232245 101.08964358089253 H 0.0 **** 0.06
13643 H 92.7839113337059 146.669331184424 101.50177429366488 H 0.0 **** 0.06
13644 H 92.53642138847508 147.9702250390261 100.31290897570338 H 0.0 **** 0.06
13645 H 92.10316576302864 146.2941077039416 99.90068321164551 H 0.0 **** 0.06
13646 C 97.26120477898914 81.07607687742524 99.58733086525802 C 0.0 **** -0.24
13647 H 96.65094141291934 81.48646072497345 98.78257481879274 H 0.0 **** 0.06
13648 H 98.2583107500162 81.51460898627022 99.54651613724113 H 0.0 **** 0.06
13649 H 97.33474017359345 79.99410439090161 99.47158257580534 H 0.0 **** 0.06
13650 H 96.80045683533163 81.30845522470221 100.54709969095441 H 0.0 **** 0.06
13651 C 240.49703732158656 159.3133880470581 189.70696589763065 C 0.0 **** -0.24
13652 H 240.90020008734737 159.7720307395245 190.60972789935937 H 0.0 **** 0.06
13653 H 241.03882195440872 158.3908682751289 189.49618577559554 H 0.0 **** 0.06
13654 H 240.60894630955562 160.00063026384666 188.8690828085534 H 0.0 **** 0.06
13655 H 239.44022793050226 159.08837213768416 189.85467619559577 H 0.0 **** 0.06
13656 C 230.79734212164956 23.460022798191105 44.846379624027406 C 0.0 **** -0.24
13657 H 229.81449021796067 23.290255366053316 45.28845851335579 H 0.0 **** 0.06
13658 H 231.10477605811738 24.489510895570064 45.02932824653591 H 0.0 **** 0.06
13659 H 230.74662706893395 23.281448036252513 43.77175149373791 H 0.0 **** 0.06
13660 H 231.51904322045527 22.778355014137787 45.29453596764597 H 0.0 **** 0.06
13661 C 139.128650836327 247.90423860647553 61.46583163488427 C 0.0 **** -0.24
13662 H 138.81571096067756 248.596596037449 60.68426436881009 H 0.0 **** 0.06
13663 H 138.98224471019182 246.87921247862823 61.12317106462646 H 0.0 **** 0.06
13664 H 138.5340162210865 248.0753895986519 62.36281188828892 H 0.0 **** 0.06
13665 H 140.18201970979382 248.0645449905429 61.692002880799976 H 0.0 **** 0.06
13666 C 60.90612696234837 198.35951509277209 74.27546820614955 C 0.0 **** -0.24
13667 H 60.718158119639384 197.35596779471962 74.65597194493103 H 0.0 **** 0.06
13668 H 61.68778575418921 198.31900079468224 73.51525394835954 H 0.0 **** 0.06
13669 H 61.22707202290161 199.0041050084789 75.09400756481381 H 0.0 **** 0.06
13670 H 59.99245949383385 198.75838600956396 73.8358009354574 H 0.0 **** 0.06
13671 C 162.44743636394978 119.26071773601649 161.56007656181723 C 0.0 **** -0.24
13672 H 161.74514486451258 119.4719600486263 162.3667189287857 H 0.0 **** 0.06
13673 H 162.08998247481398 119.72076112651919 160.63873603476264 H 0.0 **** 0.06
13674 H 162.5269822267457 118.18302711567733 161.42109475922382 H 0.0 **** 0.06
13675 H 163.42564100010577 119.66843249241572 161.81430860706996 H 0.0 **** 0.06
13676 C 121.32008893465033 94.64688681211831 82.21848228683288 C 0.0 **** -0.24
13677 H 121.67924115744424 94.94670755473999 83.20356491462789 H 0.0 **** 0.06
13678 H 121.36162753105751 95.50061213029886 81.54188920559804 H 0.0 **** 0.06
13679 H 120.29242394749551 94.29542498422617 82.29780949180847 H 0.0 **** 0.06
13680 H 121.94980003562665 93.84553305888758 81.83165330283376 H 0.0 **** 0.06
13681 C 206.38142809823412 142.09231463265118 186.2154721918457 C 0.0 **** -0.24
13682 H 206.20581297006916 142.6983285605667 185.32696782525824 H 0.0 **** 0.06
13683 H 205.58199581776842 141.35971082290126 186.3195742652033 H 0.0 **** 0.06
13684 H 206.40246633445625 142.73601199496028 187.09536745618675 H 0.0 **** 0.06
13685 H 207.33781080491266 141.57673732133716 186.12013731978362 H 0.0 **** 0.06
13686 C 120.60032195667699 77.80063704386859 31.143734570436607 C 0.0 **** -0.24
13687 H 121.4996054398203 78.04443834644533 30.577490173128666 H 0.0 **** 0.06
13688 H 119.8750063400405 78.60787751656991 31.038465147733234 H 0.0 **** 0.06
13689 H 120.85720237236058 77.67659202276144 32.195790583558434 H 0.0 **** 0.06
13690 H 120.17146042670777 76.87378970808547 30.763017652665184 H 0.0 **** 0.06
13691 C 64.77550190102622 167.62184986007563 119.32591677705412 C 0.0 **** -0.24
13692 H 65.62324990833778 167.91666314838142 118.7066615634325 H 0.0 **** 0.06
13693 H 64.24031310696344 166.80399218168097 118.84268355306952 H 0.0 **** 0.06
13694 H 64.10533368688394 168.47191131906408 119.4518478881603 H 0.0 **** 0.06
13695 H 65.13471309846196 167.2952050976946 120.30095937493715 H 0.0 **** 0.06
13696 C 217.74632640584676 133.26009885497294 84.07391988939216 C 0.0 **** -0.24
13697 H 217.51240287794505 134.20453401086542 84.5658452841154 H 0.0 **** 0.06
13698 H 218.65928101702502 132.84431670013478 84.50207016908135 H 0.0 **** 0.06
13699 H 217.8904435216296 133.43270135691114 83.00770265295009 H 0.0 **** 0.06
13700 H 216.92392770737146 132.56102432040834 84.2224450899649 H 0.0 **** 0.06
13701 C 162.9619922179199 99.79961411751103 138.04085115862057 C 0.0 **** -0.24
13702 H 163.86270066385617 99.19742119392762 138.16630857108586 H 0.0 **** 0.06
13703 H 162.74123986065752 99.90396118233758 136.97852039256782 H 0.0 **** 0.06
13704 H 163.12013279272415 100.78509243836851 138.47868629261944 H 0.0 **** 0.06
13705 H 162.12639603414374 99.30963147805534 138.5394156857863 H 0.0 **** 0.06
13706 C 104.72734497268641 129.07411214472253 171.689026718935 C 0.0 **** -0.24
13707 H 104.102195929873 128.69735520076426 172.49829085643734 H 0.0 **** 0.06
13708 H 104.73796830859962 130.16386174188145 171.7160735701844 H 0.0 **** 0.06
13709 H 104.32395789870023 128.7380043289657 170.73275322578303 H 0.0 **** 0.06
13710 H 105.74237087728477 128.6970982888418 171.80770493484926 H 0.0 **** 0.06
13711 C 73.00044052105537 142.42546726102486 184.7439841490863 C 0.0 **** -0.24
13712 H 72.38682627540746 142.3491801279508 185.64097600443662 H 0.0 **** 0.06
13713 H 73.93782808528158 142.92613350729854 184.98686361665042 H 0.0 **** 0.06
13714 H 72.46730364153362 142.99915737784053 183.9866115356568 H 0.0 **** 0.06
13715 H 73.2101900586018 141.42632286590398 184.36231914310528 H 0.0 **** 0.06
13716 C 26.11208888304705 144.7839935473124 93.61329300866637 C 0.0 **** -0.24
13717 H 26.07007990155509 145.68762739360147 94.22116526801909 H 0.0 **** 0.06
13718 H 25.9955586870756 145.04695169822634 92.56216252748445 H 0.0 **** 0.06
13719 H 25.310044657246834 144.10800607483216 93.91078682732049 H 0.0 **** 0.06
13720 H 27.074807038560607 144.29220922951464 93.76080412554714 H 0.0 **** 0.06
13721 C 79.21443461615078 83.12759640872747 57.317174380461324 C 0.0 **** -0.24
13722 H 80.19372448463034 82.8357169100772 56.93821491298411 H 0.0 **** 0.06
13723 H 79.2935292799609 83.3707088171121 58.37764643487483 H 0.0 **** 0.06
13724 H 78.51236701934457 82.30409231529399 57.184363716541554 H 0.0 **** 0.06
13725 H 78.85772428304014 84.00101475981126 56.7703510989715 H 0.0 **** 0.06
13726 C 194.06088705160806 66.66813494103454 6.830679167703167 C 0.0 **** -0.24
13727 H 193.45015446264236 65.85393518429157 6.439183266722708 H 0.0 **** 0.06
13728 H 193.8530376694868 67.57976540328318 6.2699170882325745 H 0.0 **** 0.06
13729 H 195.11452604239872 66.41142875955063 6.730099031967953 H 0.0 **** 0.06
13730 H 193.82373645322664 66.82615566428669 7.88331092899675 H 0.0 **** 0.06
13731 C 63.804687546300585 243.1358629301987 198.6190586557228 C 0.0 **** -0.24
13732 H 64.6041972470615 242.56723454840846 199.0952672054188 H 0.0 **** 0.06
13733 H 62.945441598007704 242.48577266894847 198.45493486330494 H 0.0 **** 0.06
13734 H 64.15552836215477 243.52316143426785 197.66214268955707 H 0.0 **** 0.06
13735 H 63.515212918349704 243.96476646829706 199.26399037366096 H 0.0 **** 0.06
13736 C 119.39929097334951 75.23531373715608 113.49524714654484 C 0.0 **** -0.24
13737 H 118.60462551970227 75.00505291786081 114.20438206597055 H 0.0 **** 0.06
13738 H 120.3552602040107 74.9016621388233 113.8998358484451 H 0.0 **** 0.06
13739 H 119.43258882198765 76.31219864111287 113.32399369232922 H 0.0 **** 0.06
13740 H 119.20485584842405 74.72405715915883 112.55260975109258 H 0.0 **** 0.06
13741 C 15.179625865866555 199.71468006203077 61.35783068081511 C 0.0 **** -0.24
13742 H 14.564413935699363 200.6143954030868 61.36050536098921 H 0.0 **** 0.06
13743 H 16.01633889850703 199.85074103491485 60.671713858443326 H 0.0 **** 0.06
13744 H 14.578681556721506 198.86512913216853 61.03444435214422 H 0.0 **** 0.06
13745 H 15.558832388382385 199.53111143575535 62.362448781705524 H 0.0 **** 0.06
13746 C 246.3317122762804 66.90783356616913 209.02306316835717 C 0.0 **** -0.24
13747 H 247.32101671165663 66.45332698636886 208.9689053122084 H 0.0 **** 0.06
13748 H 245.9502349991776 66.82636599495572 210.04205174252724 H 0.0 **** 0.06
13749 H 245.6574466787651 66.3927558319773 208.33913890588468 H 0.0 **** 0.06
13750 H 246.3996199568753 67.9595646961101 208.74468258772094 H 0.0 **** 0.06
13751 C 235.57068604102477 65.58043842300688 211.93563138326948 C 0.0 **** -0.24
13752 H 236.41759734906924 65.4187991772107 211.26958968125808 H 0.0 **** 0.06
13753 H 234.6439905701019 65.53905770064492 211.3617945377858 H 0.0 **** 0.06
13754 H 235.66216803386266 66.55769860080696 212.40948068140003 H 0.0 **** 0.06
13755 H 235.55851489559592 64.80533031697973 212.70181142410672 H 0.0 **** 0.06
13756 C 138.53286956282906 126.51557610574548 230.20878479779597 C 0.0 **** -0.24
13757 H 138.57464092757917 126.53102302025422 229.11966170298317 H 0.0 **** 0.06
13758 H 137.4993042762704 126.63973123794474 230.53444241926027 H 0.0 **** 0.06
13759 H 139.13925059900075 127.32913124037776 230.60797855896058 H 0.0 **** 0.06
13760 H 138.91617721294344 125.56350655652864 230.5736770727764 H 0.0 **** 0.06
13761 C 26.726781986480674 146.7831597702465 165.95092146224127 C 0.0 **** -0.24
13762 H 27.240116615879842 147.67324483623534 165.58665136181537 H 0.0 **** 0.06
13763 H 27.080051077719006 145.9101830455328 165.4007158906128 H 0.0 **** 0.06
13764 H 25.652724902687424 146.89679889420387 165.80157252091254 H 0.0 **** 0.06
13765 H 26.93433149656002 146.65250850386596 167.01251413695195 H 0.0 **** 0.06
13766 C 75.73015676208243 154.41191179120244 118.06831581934182 C 0.0 **** -0.24
13767 H 74.68416605028733 154.58822720184926 118.31905248473694 H 0.0 **** 0.06
13768 H 76.33346161508035 154.4580582539585 118.97458968573773 H 0.0 **** 0.06
13769 H 76.06806665532531 155.1733863993654 117.36550297586257 H 0.0 **** 0.06
13770 H 75.83237306281896 153.42695585053244 117.61293115723362 H 0.0 **** 0.06
13771 C 83.31312320135135 163.59714961200365 12.65991147831653 C 0.0 **** -0.24
13772 H 83.83876073026849 163.78077615484258 13.596846933759181 H 0.0 **** 0.06
13773 H 82.25689457687443 163.83421001834387 12.784454716143046 H 0.0 **** 0.06
13774 H 83.42177390255833 162.54872742217938 12.382814919532237 H 0.0 **** 0.06
13775 H 83.73752833635197 164.2263489012156 11.876864151948396 H 0.0 **** 0.06
13776 C 25.46512668880125 215.94542914049552 97.07424491050642 C 0.0 **** -0.24
13777 H 24.496768416570177 215.80772324468322 96.59375775509113 H 0.0 **** 0.06
13778 H 25.92570261830849 216.86329746344805 96.70775325715607 H 0.0 **** 0.06
13779 H 26.10957283802901 215.09810250083373 96.84290256081184 H 0.0 **** 0.06
13780 H 25.329199211100274 216.01367577154272 98.15370018502827 H 0.0 **** 0.06
13781 C 184.65965942046745 99.69564834337612 199.81810299192142 C 0.0 **** -0.24
13782 H 184.68109982325458 100.68830439940913 199.36950983273815 H 0.0 **** 0.06
13783 H 184.19669816310153 98.99327250661943 199.12477577497947 H 0.0 **** 0.06
13784 H 184.08241859331378 99.72735518469446 200.74316963321075 H 0.0 **** 0.06
13785 H 185.67816864548232 99.37332832791546 200.0363078100774 H 0.0 **** 0.06
13786 C 189.45791638594326 51.0474126469735 232.11218498072307 C 0.0 **** -0.24
13787 H 190.19533657076147 51.73824978105634 232.52178979177893 H 0.0 **** 0.06
13788 H 189.90373598299914 50.4877640783821 231.28916192664352 H 0.0 **** 0.06
13789 H 188.59801840211753 51.60898176642735 231.7474711921145 H 0.0 **** 0.06
13790 H 189.13644460291587 50.35596123060611 232.89120962909766 H 0.0 **** 0.06
13791 C 106.1228778179968 146.11155012308947 17.1971868587474 C 0.0 **** -0.24
13792 H 106.70026264554176 146.9084375860778 16.728914825408864 H 0.0 **** 0.06
13793 H 105.14608471242443 146.04051577637554 16.71840097496728 H 0.0 **** 0.06
13794 H 105.9937741442603 146.330853049723 18.256959964034365 H 0.0 **** 0.06
13795 H 106.65340471701589 145.16542705712502 17.084541689532614 H 0.0 **** 0.06
13796 C 131.9683881006643 62.5349599549962 117.52154531099262 C 0.0 **** -0.24
13797 H 131.4976751329179 62.663125403758585 116.54651736555613 H 0.0 **** 0.06
13798 H 132.01134836992424 63.49692767936378 118.03303928838324 H 0.0 **** 0.06
13799 H 132.97850607950713 62.14827104537753 117.38895225434086 H 0.0 **** 0.06
13800 H 131.38414503769516 61.83262162869116 118.11717145242832 H 0.0 **** 0.06
13801 C 105.93832340233268 83.12247526989759 204.6514365423135 C 0.0 **** -0.24
13802 H 105.2920082298977 83.20098469466757 205.52553924543167 H 0.0 **** 0.06
13803 H 105.64953746722986 82.25109022077626 204.0639339068897 H 0.0 **** 0.06
13804 H 106.97407830951511 83.01616920829207 204.97433027866106 H 0.0 **** 0.06
13805 H 105.83702737179149 84.02151767646177 204.0426964958346 H 0.0 **** 0.06
13806 C 183.53277857131326 201.79937282213305 82.90699403558142 C 0.0 **** -0.24
13807 H 183.43662917208374 202.12725844015787 81.87181343007916 H 0.0 **** 0.06
13808 H 184.58938197732368 201.70558354643526 83.16133121468494 H 0.0 **** 0.06
13809 H 183.0422387250256 200.8346256933383 83.02852669208073 H 0.0 **** 0.06
13810 H 183.06499389660775 202.53153718163207 83.5648301954997 H 0.0 **** 0.06
13811 C 199.57434385655347 117.82470143710387 65.82521535550379 C 0.0 **** -0.24
13812 H 199.41902978045013 117.80396740519984 66.90392393864502 H 0.0 **** 0.06
13813 H 200.07086458268705 116.90673373072497 65.51199974315472 H 0.0 **** 0.06
13814 H 200.19568055232617 118.68186959019684 65.56441649857243 H 0.0 **** 0.06
13815 H 198.61120978732745 117.90748218689382 65.32156797728766 H 0.0 **** 0.06
13816 C 94.7090478077177 26.258901972408154 113.45701586519428 C 0.0 **** -0.24
13817 H 94.20358247842839 26.212463346208352 112.49097919354674 H 0.0 **** 0.06
13818 H 95.28224772670853 25.344581714894645 113.60978329114582 H 0.0 **** 0.06
13819 H 93.96679749598957 26.360792849979333 114.2494546983497 H 0.0 **** 0.06
13820 H 95.38026949660218 27.11655078706812 113.47376421940893 H 0.0 **** 0.06
13821 C 6.14815950513335 127.45618721659315 84.67717868823914 C 0.0 **** -0.24
13822 H 6.274728097931387 126.73463182519845 83.8697359456174 H 0.0 **** 0.06
13823 H 7.125210292848891 127.73633731000425 85.07021335265767 H 0.0 **** 0.06
13824 H 5.54954737365253 127.01042291689211 85.47138978825942 H 0.0 **** 0.06
13825 H 5.641943682011572 128.34303721376148 84.29447096307129 H 0.0 **** 0.06
13826 C 202.07068572035124 93.98375220078532 57.50946888394736 C 0.0 **** -0.24
13827 H 202.858763402325 94.73623644420391 57.51903929156657 H 0.0 **** 0.06
13828 H 202.51313477889204 92.99361625575324 57.62938232541015 H 0.0 **** 0.06
13829 H 201.5343233878413 94.03007025179727 56.56141262996914 H 0.0 **** 0.06
13830 H 201.37735141310498 94.17322792338544 58.32896815720531 H 0.0 **** 0.06
13831 C 82.46601216934965 33.03682956236072 101.25840152422401 C 0.0 **** -0.24
13832 H 82.42907595152784 33.59591134158069 100.32390120828478 H 0.0 **** 0.06
13833 H 83.50186874960411 32.79283892507394 101.49544854306427 H 0.0 **** 0.06
13834 H 81.89156192352823 32.11647660733577 101.15331145737505 H 0.0 **** 0.06
13835 H 82.04193100742464 33.64050204831835 102.06037674846613 H 0.0 **** 0.06
13836 C 0.4072195902413398 116.26648725791591 219.5786940624651 C 0.0 **** -0.24
13837 H -0.09960449907200086 115.30800060812516 219.4689751084112 H 0.0 **** 0.06
13838 H 1.2991912161999721 116.27998360293955 218.95121892350159 H 0.0 **** 0.06
13839 H 0.6928030017143385 116.40938209440048 220.62097077809517 H 0.0 **** 0.06
13840 H -0.26463477146990044 117.0692002560273 219.27301426459746 H 0.0 **** 0.06
13841 C 86.3748927245677 145.30894790903096 75.87512722879956 C 0.0 **** -0.24
13842 H 86.78260782142306 145.17219109209813 74.87387424606456 H 0.0 **** 0.06
13843 H 85.31140958806517 145.0680208353001 75.87061702703934 H 0.0 **** 0.06
13844 H 86.51155399483685 146.34518170352678 76.18489777685869 H 0.0 **** 0.06
13845 H 86.89339309461587 144.65064906411507 76.57187435778744 H 0.0 **** 0.06
13846 C 208.07364785567896 89.90752703332481 228.7878265197676 C 0.0 **** -0.24
13847 H 207.78932766922674 90.61732845170158 229.5643196248126 H 0.0 **** 0.06
13848 H 209.14037896224497 90.00026727208603 228.58464787796984 H 0.0 **** 0.06
13849 H 207.51066155175437 90.12009584846854 227.87861450031286 H 0.0 **** 0.06
13850 H 207.85357069993248 88.8947552231943 229.1240479739432 H 0.0 **** 0.06
13851 C 5.622036877305959 192.402409093264 101.39725055435653 C 0.0 **** -0.24
13852 H 6.209800888854346 193.28109103436083 101.6636789431584 H 0.0 **** 0.06
13853 H 6.217347301539462 191.50467166584775 101.56131630615636 H 0.0 **** 0.06
13854 H 5.334705063182156 192.46210643654808 100.34809984422864 H 0.0 **** 0.06
13855 H 4.726315027422146 192.36336557479217 102.01844581847524 H 0.0 **** 0.06
13856 C 243.31243939070572 7.961469635460247 82.21661996093115 C 0.0 **** -0.24
13857 H 242.99063035019253 7.427954185031155 83.11037426938606 H 0.0 **** 0.06
13858 H 242.4495550768313 8.428425564141222 81.74194071239967 H 0.0 **** 0.06
13859 H 243.77474117329962 7.2598123331477495 81.52195481435044 H 0.0 **** 0.06
13860 H 244.03604165141968 8.729248080968205 82.49279492027381 H 0.0 **** 0.06
13861 C 241.48391212704928 227.1653905508424 133.02331129960606 C 0.0 **** -0.24
13862 H 240.72305977302096 227.94222467490485 132.94480007561225 H 0.0 **** 0.06
13863 H 241.08727547269922 226.22767320284407 132.631736112849 H 0.0 **** 0.06
13864 H 241.7617896432856 227.03367865791768 134.06927384059173 H 0.0 **** 0.06
13865 H 242.36252443293154 227.457698665594 132.44839395823345 H 0.0 **** 0.06
13866 C 111.3060267162181 34.9492048537186 207.85647805459837 C 0.0 **** -0.24
13867 H 111.42199567421889 33.88998949060877 208.08674656607056 H 0.0 **** 0.06
13868 H 110.54429574049684 35.380889356341626 208.50511275316373 H 0.0 **** 0.06
13869 H 111.00516090434652 35.06403038866752 206.81470819639475 H 0.0 **** 0.06
13870 H 112.25474294568798 35.461194079856426 208.0189899686568 H 0.0 **** 0.06
13871 C 36.681771112565045 202.7411256078031 126.98881340363138 C 0.0 **** -0.24
13872 H 37.71738622657418 202.77081917530177 126.65042280882244 H 0.0 **** 0.06
13873 H 36.64955540693025 202.41217491634916 128.02793522945134 H 0.0 **** 0.06
13874 H 36.11697435130334 202.04435872978723 126.36898027223822 H 0.0 **** 0.06
13875 H 36.245191903921125 203.73645714170078 126.90856816955727 H 0.0 **** 0.06
13876 C 0.9504502323579516 210.85009950544378 108.52735682395658 C 0.0 **** -0.24
13877 H 0.4044855449464535 210.02654457465735 108.06713795720344 H 0.0 **** 0.06
13878 H 0.3327844836346543 211.30874351857335 109.30028908016439 H 0.0 **** 0.06
13879 H 1.1930456526531543 211.593282226623 107.76704143857751 H 0.0 **** 0.06
13880 H 1.8706368513902731 210.4725435233937 108.97301771937745 H 0.0 **** 0.06
13881 C 234.73653218142758 34.136507615966195 214.40636104113514 C 0.0 **** -0.24
13882 H 234.31013120737626 33.583301284670725 215.24257544170894 H 0.0 **** 0.06
13883 H 235.52931301706604 33.54530259554282 213.9469780322815 H 0.0 **** 0.06
13884 H 235.14856080072377 35.07905189394317 214.76719794681372 H 0.0 **** 0.06
13885 H 233.95869262135582 34.33756353391391 213.66970188934687 H 0.0 **** 0.06
13886 C 52.46259413475836 26.23132469358721 176.733261112543 C 0.0 **** -0.24
13887 H 51.704127394024255 26.89787892495623 177.14368434291777 H 0.0 **** 0.06
13888 H 52.35510339920229 25.241158574347452 177.17665075130142 H 0.0 **** 0.06
13889 H 53.45348511061613 26.625199760363813 176.95987328620643 H 0.0 **** 0.06
13890 H 52.338390905590884 26.16174202184611 175.6527758627812 H 0.0 **** 0.06
13891 C 67.58992520682023 146.45500603094504 23.175213829022653 C 0.0 **** -0.24
13892 H 67.46263735802708 145.64739933828102 22.45442967188211 H 0.0 **** 0.06
13893 H 68.29477690686042 147.18606468628354 22.781246981957295 H 0.0 **** 0.06
13894 H 67.97173860780109 146.04856777185725 24.11155780088707 H 0.0 **** 0.06
13895 H 66.62795714551893 146.93659614305255 23.35420263912856 H 0.0 **** 0.06
13896 C 114.97204244685503 146.91231755803983 87.33432480877374 C 0.0 **** -0.24
13897 H 114.90755394050188 147.50947878523897 86.42481655207789 H 0.0 **** 0.06
13898 H 115.11326903441707 147.57058464160602 88.19102724131355 H 0.0 **** 0.06
13899 H 115.81729833821737 146.22656572541285 87.25855216118677 H 0.0 **** 0.06
13900 H 114.0521499972512 146.34169962180053 87.46031535186407 H 0.0 **** 0.06
13901 C 218.4317194822616 130.8592668859295 157.8080401904565 C 0.0 **** -0.24
13902 H 217.97074801368572 130.03172533670852 158.34686655780843 H 0.0 **** 0.06
13903 H 219.0102884023148 131.46744295508444 158.50339940921936 H 0.0 **** 0.06
13904 H 217.65441496273436 131.47108503497813 157.349870125097 H 0.0 **** 0.06
13905 H 219.0895853000837 130.46662438898807 157.03278216682648 H 0.0 **** 0.06
13906 C 162.12036788859308 58.98784846676037 92.79939586753216 C 0.0 **** -0.24
13907 H 162.7842676404568 59.10232957649808 93.65683669551811 H 0.0 **** 0.06
13908 H 162.70843531133318 58.746689076151 91.91423801851411 H 0.0 **** 0.06
13909 H 161.57858941822823 59.91994210250871 92.6337875092645 H 0.0 **** 0.06
13910 H 161.40900154570164 58.18489336320414 92.99528258768589 H 0.0 **** 0.06
13911 C 32.92893047630358 154.6797406868685 217.8934650691661 C 0.0 **** -0.24
13912 H 33.66128494896944 153.87223648460494 217.90343816653603 H 0.0 **** 0.06
13913 H 32.11183724067777 154.4217507629548 217.22076275823795 H 0.0 **** 0.06
13914 H 33.40667685593874 155.59823158294944 217.55081444382338 H 0.0 **** 0.06
13915 H 32.53837822203306 154.82794455772756 218.90008173661556 H 0.0 **** 0.06
13916 C 241.70508365452076 160.0502900364908 21.22638813445495 C 0.0 **** -0.24
13917 H 242.5931717507167 159.51270311983978 21.556788493775798 H 0.0 **** 0.06
13918 H 240.83340366492405 159.67904091189595 21.766466521630406 H 0.0 **** 0.06
13919 H 241.56310794047585 159.89600453390582 20.157307016104312 H 0.0 **** 0.06
13920 H 241.8292669603071 161.11467318649667 21.42621202481645 H 0.0 **** 0.06
13921 C 116.2645435163283 10.864640159277286 111.91632907857098 C 0.0 **** -0.24
13922 H 116.11100206475518 9.86941495814844 112.33381248310118 H 0.0 **** 0.06
13923 H 116.39106743255749 11.582674372951317 112.72747404073417 H 0.0 **** 0.06
13924 H 115.39968106457431 11.143888450754645 111.3148892259228 H 0.0 **** 0.06
13925 H 117.15694051915617 10.861003529229237 111.29063671716753 H 0.0 **** 0.06
13926 C 128.20771952459802 79.54696877648192 88.82535727109735 C 0.0 **** -0.24
13927 H 127.14057589901398 79.63497520729939 89.03092216676654 H 0.0 **** 0.06
13928 H 128.57253494189007 80.48032307629276 88.39591340184626 H 0.0 **** 0.06
13929 H 128.37559882840688 78.7323303075444 88.12200226969554 H 0.0 **** 0.06
13930 H 128.74035106535382 79.34166215785822 89.75451302427493 H 0.0 **** 0.06
13931 C 222.35598847045685 160.9740913705291 45.35543130621612 C 0.0 **** -0.24
13932 H 222.4486050680985 162.0598051318714 45.38728041762613 H 0.0 **** 0.06
13933 H 223.28676335635222 160.5193499419835 45.695376772091095 H 0.0 **** 0.06
13934 H 222.14791410497378 160.65714459245618 44.333637117283075 H 0.0 **** 0.06
13935 H 221.53977277739867 160.65992488069358 46.005846501782656 H 0.0 **** 0.06
13936 C 53.44697020910692 2.658596895114755 38.57163532338346 C 0.0 **** -0.24
13937 H 53.32325121085577 2.947287781655035 39.61552791990199 H 0.0 **** 0.06
13938 H 54.21275044982664 1.8870810641589628 38.496939231657635 H 0.0 **** 0.06
13939 H 53.7479111812622 3.528656634291309 37.98828024424533 H 0.0 **** 0.06
13940 H 52.50327103249592 2.2729699220114696 38.18801408497444 H 0.0 **** 0.06
13941 C 211.51828428701083 126.18443089510242 186.89321644493165 C 0.0 **** -0.24
13942 H 212.53563201642768 126.44357788063434 186.6000134323639 H 0.0 **** 0.06
13943 H 210.96394728515006 127.09527934916949 187.1245066820895 H 0.0 **** 0.06
13944 H 211.5466159090685 125.5430247662035 187.77318522331754 H 0.0 **** 0.06
13945 H 211.0275845930487 125.65820440066912 186.075096010381 H 0.0 **** 0.06
13946 C 188.7228312489159 117.2162242415722 166.24286845409455 C 0.0 **** -0.24
13947 H 189.4138420233341 117.80110618030261 165.6368257291635 H 0.0 **** 0.06
13948 H 189.19711497053515 116.27858782425702 166.5314675921913 H 0.0 **** 0.06
13949 H 187.82236573134944 117.00646505740201 165.6654704054476 H 0.0 **** 0.06
13950 H 188.4577326760817 117.77964777697011 167.13739471616162 H 0.0 **** 0.06
13951 C 141.46651382103633 104.92487071020818 140.19870930976143 C 0.0 **** -0.24
13952 H 141.18986480246974 105.7897154858874 140.8022475520133 H 0.0 **** 0.06
13953 H 141.12867814385774 105.07437949558258 139.17235568417408 H 0.0 **** 0.06
13954 H 140.99842734490832 104.03088963584102 140.6097062076247 H 0.0 **** 0.06
13955 H 142.55040146510365 104.80562352932128 140.2105526353747 H 0.0 **** 0.06
13956 C 189.21899175041844 219.57515908211212 123.64339936069302 C 0.0 **** -0.24
13957 H 189.60074832794072 220.35700380526674 122.98704175180868 H 0.0 **** 0.06
13958 H 190.05295395367702 219.00853211643093 124.05703989306332 H 0.0 **** 0.06
13959 H 188.57188012039572 218.90794568264235 123.07408539954673 H 0.0 **** 0.06
13960 H 188.64916844714668 220.02934934189943 124.45378579704837 H 0.0 **** 0.06
13961 C 225.06559140191214 217.84550564245956 175.32731139973757 C 0.0 **** -0.24
13962 H 226.15285329352858 217.8624851622061 175.39859841270066 H 0.0 **** 0.06
13963 H 224.68773965719433 218.8681277683572 175.31321807620674 H 0.0 **** 0.06
13964 H 224.65290881847153 217.3175703843482 176.18689677405584 H 0.0 **** 0.06
13965 H 224.77032174134823 217.335771117332 174.41015486383753 H 0.0 **** 0.06
13966 C 224.48400240509693 228.9694305322178 108.34663770513228 C 0.0 **** -0.24
13967 H 224.13577317056553 228.36917341237466 109.18709493650795 H 0.0 **** 0.06
13968 H 225.01595480204145 228.3320375428268 107.64083717619434 H 0.0 **** 0.06
13969 H 225.15341725106146 229.74836362874737 108.70997577382494 H 0.0 **** 0.06
13970 H 223.62863916597806 229.42766842908247 107.84954783984509 H 0.0 **** 0.06
13971 C 42.561778964193564 163.60027852826914 23.011722390853407 C 0.0 **** -0.24
13972 H 43.000055565597094 163.30523995869765 23.96478032501129 H 0.0 **** 0.06
13973 H 43.071605821766966 163.0802046419283 22.200414001798777 H 0.0 **** 0.06
13974 H 42.6694171179188 164.67691980965327 22.879608239260804 H 0.0 **** 0.06
13975 H 41.503252587983226 163.3377737018199 23.002627924263237 H 0.0 **** 0.06
13976 C 23.801716442111655 149.07712516478875 54.896552668444826 C 0.0 **** -0.24
13977 H 24.440521331339866 149.80112605629165 54.39065189511729 H 0.0 **** 0.06
13978 H 23.561723842599136 149.4397611162651 55.896025673280036 H 0.0 **** 0.06
13979 H 24.322759692367214 148.1225713009484 54.9708320206563 H 0.0 **** 0.06
13980 H 22.880770258013513 148.94585604536218 54.327235422176756 H 0.0 **** 0.06
13981 C 147.3368217799607 134.36214644957428 8.649152584774498 C 0.0 **** -0.24
13982 H 146.65037504801955 134.37867093954307 7.801549840490907 H 0.0 **** 0.06
13983 H 147.33798112327722 135.33815114529622 9.133506845596202 H 0.0 **** 0.06
13984 H 148.34149412385034 134.1287638968304 8.297521203246248 H 0.0 **** 0.06
13985 H 147.01529831788727 133.60248499624183 9.361005589192075 H 0.0 **** 0.06
13986 C 38.28043999104986 193.64943961922435 42.212421124314545 C 0.0 **** -0.24
13987 H 38.82059994615311 192.76556038333092 41.8737984963 H 0.0 **** 0.06
13988 H 37.385771439973695 193.78388339627716 41.603772102352536 H 0.0 **** 0.06
13989 H 38.92090780438035 194.5260182139305 42.11532572995151 H 0.0 **** 0.06
13990 H 37.99319305939183 193.5225001420035 43.25624014081521 H 0.0 **** 0.06
13991 C 40.79365681968167 80.91329850090162 77.71942420160957 C 0.0 **** -0.24
13992 H 40.40849214456122 80.78573868423692 76.70754316146991 H 0.0 **** 0.06
13993 H 41.710315450811294 81.50324992578703 77.68621498568638 H 0.0 **** 0.06
13994 H 41.004945606671214 79.93669591838764 78.15410685135777 H 0.0 **** 0.06
13995 H 40.051420660259765 81.42954046148043 78.32794066567641 H 0.0 **** 0.06
13996 C 205.19894379031348 145.86944111623905 226.40866697390618 C 0.0 **** -0.24
13997 H 205.9338413228769 146.56013471415173 226.82216974248732 H 0.0 **** 0.06
13998 H 204.2004414362795 146.29431484566285 226.51730832890405 H 0.0 **** 0.06
13999 H 205.25120720536125 144.92155011333847 226.94311597901876 H 0.0 **** 0.06
14000 H 205.4106453985459 145.70334434633835 225.35268645548194 H 0.0 **** 0.06
14001 C 182.720660777006 124.01725236998331 59.064276997035535 C 0.0 **** -0.24
14002 H 181.84530774528423 123.3756613067271 59.16963142275233 H 0.0 **** 0.06
14003 H 183.3346054567886 123.66053107280348 58.23612276381206 H 0.0 **** 0.06
14004 H 183.30221164782404 123.99125493198531 59.98546985458333 H 0.0 **** 0.06
14005 H 182.40010309226818 125.03920665635255 58.86535549770926 H 0.0 **** 0.06
14006 C 69.97192554833293 179.3167302173859 144.04330727009693 C 0.0 **** -0.24
14007 H 70.61718237238458 179.3328018791832 144.92256543321156 H 0.0 **** 0.06
14008 H 69.51553886928534 178.33147084649602 143.94620555160935 H 0.0 **** 0.06
14009 H 70.56435595797458 179.5327000463871 143.15469497925753 H 0.0 **** 0.06
14010 H 69.19167098545304 180.06936365454567 144.15189955870497 H 0.0 **** 0.06
14011 C 148.80251347787447 242.9484817545466 95.66180341372231 C 0.0 **** -0.24
14012 H 148.82980983693244 242.29822339797576 96.5362332557211 H 0.0 **** 0.06
14013 H 149.28066038448975 242.44559261150152 94.82117292692979 H 0.0 **** 0.06
14014 H 149.33366250623789 243.87387810150716 95.88178038462797 H 0.0 **** 0.06
14015 H 147.76684049957223 243.17395294137154 95.41001623611348 H 0.0 **** 0.06
14016 C 61.36556169897591 82.65283685070366 196.55655889462727 C 0.0 **** -0.24
14017 H 60.77913543121082 82.56673551150342 197.47081452182397 H 0.0 **** 0.06
14018 H 60.69606932212665 82.78355252911487 195.70599264541042 H 0.0 **** 0.06
14019 H 61.957785613300075 81.74823834953801 196.41804912198887 H 0.0 **** 0.06
14020 H 62.029846127174835 83.51409957802335 196.63124682624044 H 0.0 **** 0.06
14021 C 163.87627185537684 233.10702358688764 158.7511621652986 C 0.0 **** -0.24
14022 H 164.58660340352046 232.65354610393064 158.05908930520067 H 0.0 **** 0.06
14023 H 164.16876114842344 234.13875051486175 158.94609581476502 H 0.0 **** 0.06
14024 H 163.8722178795429 232.54621195518476 159.6858768004682 H 0.0 **** 0.06
14025 H 162.87883892646906 233.08748405581147 158.31224380595197 H 0.0 **** 0.06
14026 C 48.6744100966491 27.011141293772795 202.70660146331633 C 0.0 **** -0.24
14027 H 48.74409708323205 28.024673607726413 203.10120701161853 H 0.0 **** 0.06
14028 H 49.300414159567794 26.346419335251 203.30246739357293 H 0.0 **** 0.06
14029 H 49.01575914693339 27.00052576466888 201.67144557833336 H 0.0 **** 0.06
14030 H 47.63901176080961 26.67317946907403 202.7517862202158 H 0.0 **** 0.06
14031 C 183.57088541217172 33.91295703957026 123.72484526589653 C 0.0 **** -0.24
14032 H 182.49668513976783 34.08329921165219 123.64165328801198 H 0.0 **** 0.06
14033 H 183.75078908864802 32.88462223985769 124.0374532803107 H 0.0 **** 0.06
14034 H 183.99059024334437 34.59734245486335 124.46160507733805 H 0.0 **** 0.06
14035 H 184.04165706219703 34.086960279771276 122.75755136551888 H 0.0 **** 0.06
14036 C 132.6832658923316 189.60456961043155 99.50817329516426 C 0.0 **** -0.24
14037 H 133.07939242150206 190.34910205667683 100.19767294297353 H 0.0 **** 0.06
14038 H 131.81687356593855 190.01553183337575 98.98771678448324 H 0.0 **** 0.06
14039 H 132.38587740887033 188.7155627825432 100.06409821476095 H 0.0 **** 0.06
14040 H 133.45144920021056 189.33854429746248 98.78085869711353 H 0.0 **** 0.06
14041 C 45.57390723240266 140.36477872916566 65.92493013558985 C 0.0 **** -0.24
14042 H 44.69786201782321 140.83257056098589 66.37342333130724 H 0.0 **** 0.06
14043 H 46.20748396856243 141.13179190043573 65.4781864783406 H 0.0 **** 0.06
14044 H 45.25623245401175 139.66170817341245 65.15512880076042 H 0.0 **** 0.06
14045 H 46.13487916041164 139.8324265555556 66.69394719759947 H 0.0 **** 0.06
14046 C 64.06392004350934 94.56200638007849 37.48017621660577 C 0.0 **** -0.24
14047 H 63.48492277877662 93.63985070171347 37.52596527074812 H 0.0 **** 0.06
14048 H 63.701071699787946 95.17838869541092 36.65780495756516 H 0.0 **** 0.06
14049 H 65.1154771572233 94.32270203176219 37.31937310015664 H 0.0 **** 0.06
14050 H 63.95409384721003 95.10614785599316 38.4186152592886 H 0.0 **** 0.06
14051 C 234.62663079027226 35.79731950063774 217.87046066131904 C 0.0 **** -0.24
14052 H 235.07308240506163 34.932708953977595 218.36194324540003 H 0.0 **** 0.06
14053 H 235.27767665226366 36.131604203567406 217.0624844269915 H 0.0 **** 0.06
14054 H 234.5013733302639 36.60242650249904 218.59433278478335 H 0.0 **** 0.06
14055 H 233.65383624602413 35.52038091753322 217.46206332835288 H 0.0 **** 0.06
14056 C 181.04186069453664 165.46859303713887 174.22116339339985 C 0.0 **** -0.24
14057 H 181.60918787771627 166.398647299837 174.22601033634652 H 0.0 **** 0.06
14058 H 179.9899724453286 165.68566261390959 174.037018143173 H 0.0 **** 0.06
14059 H 181.1472891845057 164.97391851156823 175.18689602708514 H 0.0 **** 0.06
14060 H 181.42192363287887 164.8158994983479 173.43500254452906 H 0.0 **** 0.06
14061 C 1.6300881530837614 4.030566313086183 110.80675680958171 C 0.0 **** -0.24
14062 H 0.6658424062852646 4.400657910819774 110.4584481566977 H 0.0 **** 0.06
14063 H 2.4298900235015566 4.586750109064312 110.31782621944836 H 0.0 **** 0.06
14064 H 1.7228127182951027 2.97173670400268 110.56335674517581 H 0.0 **** 0.06
14065 H 1.701562623480413 4.162956145649801 111.88601298622177 H 0.0 **** 0.06
14066 C 144.8438288846761 1.025009865023577 95.82238179795493 C 0.0 **** -0.24
14067 H 145.55163647709935 0.21734887973039463 96.01434203862436 H 0.0 **** 0.06
14068 H 144.01084121700535 0.6442399320149548 95.23233318804625 H 0.0 **** 0.06
14069 H 145.34414789956182 1.82339400338887 95.27486356605843 H 0.0 **** 0.06
14070 H 144.47151605188697 1.413205673281965 96.77035212273418 H 0.0 **** 0.06
14071 C 177.05462743845675 229.02812212000075 24.8614266304551 C 0.0 **** -0.24
14072 H 177.17960802294763 228.16650897931942 25.517493868979997 H 0.0 **** 0.06
14073 H 176.64442907862946 229.8625492093746 25.43154093598953 H 0.0 **** 0.06
14074 H 176.3739616434159 228.77158389323392 24.04984128086764 H 0.0 **** 0.06
14075 H 178.02286239082062 229.311532038353 24.447440550024382 H 0.0 **** 0.06
14076 C 220.92165418431395 228.15771118071586 204.5445579236089 C 0.0 **** -0.24
14077 H 220.2947098180365 227.2664852761218 204.5518181400479 H 0.0 **** 0.06
14078 H 220.38132279751258 228.9848023942637 205.00646559681124 H 0.0 **** 0.06
14079 H 221.17276798113198 228.4178085041512 203.51648798050897 H 0.0 **** 0.06
14080 H 221.83636061347173 227.96310615653454 205.1044789910487 H 0.0 **** 0.06
14081 C 8.435432273444206 163.08258561941233 187.91059491400497 C 0.0 **** -0.24
14082 H 9.430958210677517 162.82277758801297 187.5523974094892 H 0.0 **** 0.06
14083 H 7.797036544765973 163.32797103982702 187.06101120873774 H 0.0 **** 0.06
14084 H 8.500549598074286 163.94287967134585 188.57575461997845 H 0.0 **** 0.06
14085 H 8.011914595163233 162.2361964649478 188.45118694434183 H 0.0 **** 0.06
14086 C 42.64612955378847 36.03355559336566 165.49992972258255 C 0.0 **** -0.24
14087 H 43.41702939222884 35.374575122342236 165.90081843302931 H 0.0 **** 0.06
14088 H 42.63983832502838 35.964680978596135 164.4117549733932 H 0.0 **** 0.06
14089 H 42.855804474289684 37.05987155861911 165.79903760127576 H 0.0 **** 0.06
14090 H 41.67386466172192 35.732290253599814 165.88913755692192 H 0.0 **** 0.06
14091 C 154.08785894478473 223.2330462649315 37.49280345992614 C 0.0 **** -0.24
14092 H 153.76045406313023 224.2577005852222 37.66667447252499 H 0.0 **** 0.06
14093 H 154.78998105922204 222.9394075292878 38.27226954988291 H 0.0 **** 0.06
14094 H 154.5759872755836 223.1681993635333 36.51986040365588 H 0.0 **** 0.06
14095 H 153.22441945882287 222.56743265677346 37.511252189667545 H 0.0 **** 0.06
14096 C 65.24138371085346 152.24847871729912 75.53609533536502 C 0.0 **** -0.24
14097 H 65.70411981377438 151.45406993470198 76.12220075279885 H 0.0 **** 0.06
14098 H 65.95556884403945 152.6222905347633 74.80281988661798 H 0.0 **** 0.06
14099 H 64.9418215151733 153.06069071115252 76.19910871824271 H 0.0 **** 0.06
14100 H 64.36364018294856 151.8555604485083 75.02292664683267 H 0.0 **** 0.06
14101 C 80.3544380183724 57.17640497761815 118.0152577205807 C 0.0 **** -0.24
14102 H 80.12255025151657 56.26591203828906 118.56775318596439 H 0.0 **** 0.06
14103 H 80.19907815562757 58.042378279275084 118.65917551697106 H 0.0 **** 0.06
14104 H 79.70331284275684 57.2480291645671 117.14408405824685 H 0.0 **** 0.06
14105 H 81.39467693750973 57.14775459739943 117.68966023295047 H 0.0 **** 0.06
14106 C 28.546676252572894 185.4173964099891 13.59010858042393 C 0.0 **** -0.24
14107 H 28.070463707386892 186.28742246511996 13.138883762059322 H 0.0 **** 0.06
14108 H 29.55887745620859 185.31258602418666 13.196972351086373 H 0.0 **** 0.06
14109 H 27.97032103457306 184.5230625264669 13.352381550599546 H 0.0 **** 0.06
14110 H 28.588327246808632 185.5453900690182 14.671904027753698 H 0.0 **** 0.06
14111 C 234.88570931863248 41.72998740095562 31.284637730836295 C 0.0 **** -0.24
14112 H 233.86930698857506 42.011016868330984 31.56174117385214 H 0.0 **** 0.06
14113 H 235.199290136266 40.872530192387075 31.879787940528757 H 0.0 **** 0.06
14114 H 235.55745909728 42.56763530816278 31.471912358685103 H 0.0 **** 0.06
14115 H 234.91546439302255 41.470072986111944 30.227670996553826 H 0.0 **** 0.06
14116 C 244.63984921841393 180.53407230874774 24.32794602293484 C 0.0 **** -0.24
14117 H 245.41045471945546 179.78643935790058 24.513743476884216 H 0.0 **** 0.06
14118 H 243.66444209078062 180.04852703813967 24.292389056419765 H 0.0 **** 0.06
14119 H 244.8354385478647 181.02820322841194 23.37681616459703 H 0.0 **** 0.06
14120 H 244.64926560148015 181.2724764966669 25.130078282794784 H 0.0 **** 0.06
14121 C 57.053589550591084 70.71833359428297 123.216236629104 C 0.0 **** -0.24
14122 H 57.91214403858049 70.06610924664457 123.05782212303009 H 0.0 **** 0.06
14123 H 57.3800535300972 71.75910091389855 123.20057635338574 H 0.0 **** 0.06
14124 H 56.60053997867891 70.49483957609525 124.18226151555788 H 0.0 **** 0.06
14125 H 56.32230460678008 70.5551026101777 122.42539433529626 H 0.0 **** 0.06
14126 C 146.1783968291358 14.194404223061298 201.54092166923752 C 0.0 **** -0.24
14127 H 146.1760999223964 15.282325812168025 201.61239834322976 H 0.0 **** 0.06
14128 H 145.27442473621272 13.862994821072093 201.02840840328017 H 0.0 **** 0.06
14129 H 146.20677056352744 13.764996838268729 202.5422117345888 H 0.0 **** 0.06
14130 H 147.05418182178028 13.869362720427205 200.98120637004746 H 0.0 **** 0.06
14131 C 31.757446461768524 247.59739665715185 56.52723189942415 C 0.0 **** -0.24
14132 H 30.77296668015812 247.75376056414544 56.96774915604209 H 0.0 **** 0.06
14133 H 32.21466836925694 248.5628435393611 56.31039552209165 H 0.0 **** 0.06
14134 H 31.654858823351745 247.02820049660073 55.60410673870743 H 0.0 **** 0.06
14135 H 32.38465813568001 247.04652274918084 57.22685751748318 H 0.0 **** 0.06
14136 C 24.169373079830535 35.9207396760053 243.1288319688305 C 0.0 **** -0.24
14137 H 23.128897721237678 35.937008119717675 243.45361333718864 H 0.0 **** 0.06
14138 H 24.209428768837455 35.85108727478064 242.04094701543664 H 0.0 **** 0.06
14139 H 24.67382178973324 35.05998146214762 243.56771733466795 H 0.0 **** 0.06
14140 H 24.66547172303794 36.83623907937813 243.45267384020696 H 0.0 **** 0.06
14141 C 130.58615471421928 15.608359116994947 96.72952242055203 C 0.0 **** -0.24
14142 H 131.6001494717521 15.314619214463022 97.00103129926288 H 0.0 **** 0.06
14143 H 130.02742215467487 15.86045054751905 97.63103748427034 H 0.0 **** 0.06
14144 H 130.09447251458624 14.78187252872705 96.21669291639489 H 0.0 **** 0.06
14145 H 130.62327554081463 16.474936360408165 96.06961447874386 H 0.0 **** 0.06
14146 C 239.57724000085608 226.83745426610687 55.898456158403576 C 0.0 **** -0.24
14147 H 238.57793109179033 227.11669631250226 56.231067259076724 H 0.0 **** 0.06
14148 H 239.76043163931917 225.7898324287902 56.13719215960117 H 0.0 **** 0.06
14149 H 240.31581700390507 227.4606153290057 56.40376386626056 H 0.0 **** 0.06
14150 H 239.65513197567316 226.98427068335582 54.82065081397994 H 0.0 **** 0.06
14151 C 45.62451836127789 229.99630291560774 163.87097308570907 C 0.0 **** -0.24
14152 H 44.65227730368406 229.59960254856315 164.1659827955185 H 0.0 **** 0.06
14153 H 45.8066716528338 229.76434951183057 162.82108243563962 H 0.0 **** 0.06
14154 H 46.40276421403475 229.54319292927792 164.4842505857822 H 0.0 **** 0.06
14155 H 45.63303096290835 231.0772766175394 164.01144002984654 H 0.0 **** 0.06
14156 C 4.677681082055116 166.4027799981803 86.06209333710288 C 0.0 **** -0.24
14157 H 3.797802859667442 165.80242776572283 86.29166918975667 H 0.0 **** 0.06
14158 H 4.385225338157511 167.44745324290503 85.95045539249006 H 0.0 **** 0.06
14159 H 5.126840442636166 166.04958666255655 85.13324247892669 H 0.0 **** 0.06
14160 H 5.400855687759403 166.31165232153685 86.87300628723821 H 0.0 **** 0.06
14161 C 50.270350584637015 163.3985099023089 110.8874516392888 C 0.0 **** -0.24
14162 H 50.529129292528324 162.3408495585672 110.8366604241188 H 0.0 **** 0.06
14163 H 49.2931248848831 163.55478703476766 110.43167433714345 H 0.0 **** 0.06
14164 H 51.01985517631627 163.98152621892137 110.35244658449673 H 0.0 **** 0.06
14165 H 50.239995932761786 163.71410451998997 111.92993098847921 H 0.0 **** 0.06
14166 C 37.4184634016201 144.95109290729764 210.6965448943719 C 0.0 **** -0.24
14167 H 37.02882288868878 144.00575801157788 210.31817235316583 H 0.0 **** 0.06
14168 H 36.919675736312996 145.77681555863927 210.18906431597344 H 0.0 **** 0.06
14169 H 38.49067585565251 145.0035965676611 210.50901254281357 H 0.0 **** 0.06
14170 H 37.23353120477276 145.01684703873357 211.7685710332887 H 0.0 **** 0.06
14171 C 91.19430277854309 76.64984265242421 147.07725917690655 C 0.0 **** -0.24
14172 H 90.4049483495549 77.38932396307177 147.21612082148883 H 0.0 **** 0.06
14173 H 90.76329320796455 75.649118205131 147.10930447461521 H 0.0 **** 0.06
14174 H 91.93307230453394 76.75440265896779 147.87127954980895 H 0.0 **** 0.06
14175 H 91.67376757659116 76.80806295088405 146.1112822553654 H 0.0 **** 0.06
14176 C 66.66001620104669 210.82801682376686 135.70091611207425 C 0.0 **** -0.24
14177 H 66.00234251568034 210.48684732314632 134.90107283360996 H 0.0 **** 0.06
14178 H 66.46806809258783 211.88177918629205 135.90499546888486 H 0.0 **** 0.06
14179 H 67.69916813237302 210.70065455611132 135.3954513878263 H 0.0 **** 0.06
14180 H 66.47100643375109 210.24253048756935 136.60023063941753 H 0.0 **** 0.06
14181 C 131.7987018428315 218.31644897766125 224.3685189799382 C 0.0 **** -0.24
14182 H 130.9594145994284 218.80358119125873 224.86571482304186 H 0.0 **** 0.06
14183 H 132.5786239370104 218.10217903492037 225.099889951028 H 0.0 **** 0.06
14184 H 132.1948859322779 218.97613713047232 223.59747082102012 H 0.0 **** 0.06
14185 H 131.46044736775673 217.3863267263933 223.91274483766014 H 0.0 **** 0.06
14186 C 219.11103962551186 65.00809643844914 53.166276717914656 C 0.0 **** -0.24
14187 H 218.872276930329 65.9145784659043 53.721887437485776 H 0.0 **** 0.06
14188 H 218.30316779967924 64.78711710602926 52.468101363971485 H 0.0 **** 0.06
14189 H 219.22945169795966 64.17652475114363 53.861287281575926 H 0.0 **** 0.06
14190 H 220.03926207407974 65.15416543071925 52.613830788625165 H 0.0 **** 0.06
14191 C 170.5330828945375 143.8117183781866 101.04511795117784 C 0.0 **** -0.24
14192 H 170.3757410627117 143.79894448903048 99.9664331276785 H 0.0 **** 0.06
14193 H 171.17208409250406 142.97512977052995 101.32808356966422 H 0.0 **** 0.06
14194 H 169.57295916528253 143.72414600265262 101.5531524655359 H 0.0 **** 0.06
14195 H 171.0117690407409 144.74778719589213 101.3310135636988 H 0.0 **** 0.06
14196 C 16.33587593326652 237.85087878201097 23.76228789469623 C 0.0 **** -0.24
14197 H 15.901226307622807 237.83693340713353 22.763163882721187 H 0.0 **** 0.06
14198 H 17.122022665025412 238.6058774632922 23.80440550645835 H 0.0 **** 0.06
14199 H 16.75903775591027 236.87215846764886 23.98882969856234 H 0.0 **** 0.06
14200 H 15.56261929557806 238.09018133930633 24.492153653161864 H 0.0 **** 0.06
14201 C 11.866070778193219 226.27208011725435 227.97256084206876 C 0.0 **** -0.24
14202 H 11.02376474588199 225.61182413168325 227.7646277858493 H 0.0 **** 0.06
14203 H 12.568276593887944 226.238954802381 227.13868597798768 H 0.0 **** 0.06
14204 H 12.366637126870444 225.94613640789888 228.88364293827047 H 0.0 **** 0.06
14205 H 11.504203547614267 227.29199090336476 228.10198519469043 H 0.0 **** 0.06
14206 C 208.74043938566453 78.1475836333637 68.4486074535103 C 0.0 **** -0.24
14207 H 208.32159764386157 79.04823965222914 68.0018067351497 H 0.0 **** 0.06
14208 H 208.05759500737958 77.31222147120667 68.29108224885962 H 0.0 **** 0.06
14209 H 208.88345813519956 78.3037323333574 69.51762746516903 H 0.0 **** 0.06
14210 H 209.70053494657802 77.92444600583576 67.98287074047502 H 0.0 **** 0.06
14211 C 233.0797338895446 194.37299925578805 85.26135099226957 C 0.0 **** -0.24
14212 H 233.13520785512054 195.3205998587664 84.72463848543327 H 0.0 **** 0.06
14213 H 232.05399683503998 194.004494746885 85.24062676706467 H 0.0 **** 0.06
14214 H 233.3925846686123 194.52225234064815 86.29447996290031 H 0.0 **** 0.06
14215 H 233.73715347062873 193.64636975627877 84.78463763235996 H 0.0 **** 0.06
14216 C 113.66103544956718 73.71666421795973 153.76478490538474 C 0.0 **** -0.24
14217 H 114.4474232280503 73.00018339667676 153.53110339852662 H 0.0 **** 0.06
14218 H 114.1051247614773 74.69042402647361 153.9720458282104 H 0.0 **** 0.06
14219 H 113.10798836777141 73.376246061476 154.64082542027006 H 0.0 **** 0.06
14220 H 112.98123513213085 73.80009346254971 152.91668074832978 H 0.0 **** 0.06
14221 C 175.31240308365878 137.8424003617238 98.42854326191579 C 0.0 **** -0.24
14222 H 175.31553668543575 137.0093737288076 97.72620547290896 H 0.0 **** 0.06
14223 H 176.15148000827364 137.7387755645994 99.11706152041612 H 0.0 **** 0.06
14224 H 174.3783812552916 137.8403459173548 98.99013970903519 H 0.0 **** 0.06
14225 H 175.4059861993316 138.77977067895512 97.8804888350642 H 0.0 **** 0.06
14226 C 224.88698617271535 163.58207973804986 187.37224682578574 C 0.0 **** -0.24
14227 H 225.26018190829103 162.60615945933426 187.68194041104965 H 0.0 **** 0.06
14228 H 225.70379404676868 164.3039766016054 187.38522326550063 H 0.0 **** 0.06
14229 H 224.10450475414052 163.90632290192497 188.05849078506395 H 0.0 **** 0.06
14230 H 224.47921092390717 163.51128319592414 186.36410955310467 H 0.0 **** 0.06
14231 C 84.93086047780756 107.01247699933336 246.2191285101203 C 0.0 **** -0.24
14232 H 84.78326939161542 106.39563413997794 247.10568100640182 H 0.0 **** 0.06
14233 H 85.91236435086523 107.4871521758557 246.26703697346056 H 0.0 **** 0.06
14234 H 84.1575075349314 107.77933944807202 246.17641108632225 H 0.0 **** 0.06
14235 H 84.87308017662986 106.3872643531895 245.32746256113057 H 0.0 **** 0.06
14236 C 24.45977408822199 60.72530861071141 47.02019019259062 C 0.0 **** -0.24
14237 H 24.255448939044356 61.7947616429081 46.956628976581015 H 0.0 **** 0.06
14238 H 24.394782976564272 60.283489627303254 46.0258971222066 H 0.0 **** 0.06
14239 H 23.727294276004443 60.25469739236473 47.67619246181769 H 0.0 **** 0.06
14240 H 25.460887466167435 60.57035987960464 47.42252396490967 H 0.0 **** 0.06
14241 C 150.68062132424856 19.924671613126378 21.31664417973363 C 0.0 **** -0.24
14242 H 150.19262912150083 19.009558200479788 20.98099462686318 H 0.0 **** 0.06
14243 H 151.61009325324216 19.674536015291096 21.828202275840653 H 0.0 **** 0.06
14244 H 150.02073638017742 20.45750100849918 22.001278582056926 H 0.0 **** 0.06
14245 H 150.89765650951784 20.556768532358305 20.45596376548272 H 0.0 **** 0.06
14246 C 198.69216876301599 7.511834742144828 75.9337025676017 C 0.0 **** -0.24
14247 H 198.04134324984034 6.638359632592255 75.98017792871536 H 0.0 **** 0.06
14248 H 199.6008847796704 7.318787992977747 76.50495534442209 H 0.0 **** 0.06
14249 H 198.17511276631862 8.373370056816754 76.35501309093485 H 0.0 **** 0.06
14250 H 198.95204878810856 7.716129815761121 74.89455749871726 H 0.0 **** 0.06
14251 C 3.083190536239556 170.14729559384404 67.75724631561769 C 0.0 **** -0.24
14252 H 3.1916607053176875 171.1882250134995 67.45416592105582 H 0.0 **** 0.06
14253 H 3.9265031085808886 169.5696179004503 67.3787836924628 H 0.0 **** 0.06
14254 H 2.1548964257935808 169.745191831332 67.35146290356715 H 0.0 **** 0.06
14255 H 3.0602203622117514 170.08648503025793 68.84584450912095 H 0.0 **** 0.06
14256 C 148.72590070417593 48.27448444436661 174.01085313376876 C 0.0 **** -0.24
14257 H 149.1629490164757 49.010239997159346 173.33498767495215 H 0.0 **** 0.06
14258 H 147.64800691138382 48.23096555003664 173.85070426880165 H 0.0 **** 0.06
14259 H 148.92990616958187 48.562190020875875 175.04127577594156 H 0.0 **** 0.06
14260 H 149.16279964300523 47.295887606517596 173.81295388843978 H 0.0 **** 0.06
14261 C 63.49947426181524 225.10603217924586 98.5153196254274 C 0.0 **** -0.24
14262 H 64.52559538501663 225.2033452426447 98.15960740286624 H 0.0 **** 0.06
14263 H 63.42958139172194 225.49363415927854 99.53254933307107 H 0.0 **** 0.06
14264 H 63.210426517099535 224.05514684612905 98.50578096905909 H 0.0 **** 0.06
14265 H 62.83444551405847 225.67190760856545 97.86394160980024 H 0.0 **** 0.06
14266 C 20.577366422983943 191.23170008585421 228.3698553471015 C 0.0 **** -0.24
14267 H 20.875280481692897 192.2282844349347 228.04451181371047 H 0.0 **** 0.06
14268 H 20.30478872577217 191.26114053786057 229.42498009386833 H 0.0 **** 0.06
14269 H 21.4066965379905 190.5398025056751 228.22692229765465 H 0.0 **** 0.06
14270 H 19.72093457967614 190.89976341733612 227.7827155701151 H 0.0 **** 0.06
14271 C 116.70201957960774 148.7648361232346 183.95704429947835 C 0.0 **** -0.24
14272 H 117.23302779495111 149.71143241383788 183.86486896977564 H 0.0 **** 0.06
14273 H 117.3608239077231 148.01986543066874 184.40411487675357 H 0.0 **** 0.06
14274 H 116.38735051009601 148.42686787774142 182.9698333756744 H 0.0 **** 0.06
14275 H 115.82497773565106 148.90191364373632 184.5907224041803 H 0.0 **** 0.06
14276 C 50.475910369781715 82.21272782338082 228.7485286524515 C 0.0 **** -0.24
14277 H 50.307395833305335 82.80254418364979 229.6492445210909 H 0.0 **** 0.06
14278 H 51.50933887853256 81.86592502746214 228.72937370338593 H 0.0 **** 0.06
14279 H 50.28255384050853 82.82815648026025 227.86981744187761 H 0.0 **** 0.06
14280 H 49.80435292678047 81.35428560215112 228.74567894345142 H 0.0 **** 0.06
14281 C 0.15127482512806978 169.89976532064327 157.67979492996 C 0.0 **** -0.24
14282 H 0.7076051679783859 170.38171515956287 158.48502874176734 H 0.0 **** 0.06
14283 H 0.7589212768089624 169.10661268817182 157.24336364420637 H 0.0 **** 0.06
14284 H -0.09002288332681019 170.63621874460702 156.91396118206416 H 0.0 **** 0.06
14285 H -0.7695088890211821 169.47466856621185 158.07914649123381 H 0.0 **** 0.06
14286 C 40.56958076495789 85.07113989996736 79.6447385920082 C 0.0 **** -0.24
14287 H 40.31517646959337 85.9278341661053 79.02014355170141 H 0.0 **** 0.06
14288 H 40.46238654821447 84.15404999422913 79.06431108854878 H 0.0 **** 0.06
14289 H 39.90024871736516 85.0376601723101 80.50520317629466 H 0.0 **** 0.06
14290 H 41.59920198791153 85.16508395954082 79.98876651552362 H 0.0 **** 0.06
14291 C 75.05498840934172 186.8278259007989 82.37071576139803 C 0.0 **** -0.24
14292 H 75.9279152637697 186.80253804901892 81.71943794988002 H 0.0 **** 0.06
14293 H 75.34690457655012 186.5403437458966 83.38079027898402 H 0.0 **** 0.06
14294 H 74.30327921370883 186.13175436952815 81.99764434188776 H 0.0 **** 0.06
14295 H 74.64099838228859 187.8364563629368 82.38388485906728 H 0.0 **** 0.06
14296 C 151.05428841271157 10.203045383100246 215.0681031401636 C 0.0 **** -0.24
14297 H 150.6341782491563 9.849467771123813 216.01037215922628 H 0.0 **** 0.06
14298 H 152.1403679591179 10.120729025982484 215.1017007465927 H 0.0 **** 0.06
14299 H 150.77315061551909 11.245188595431756 214.91343691245464 H 0.0 **** 0.06
14300 H 150.6683680880097 9.59798167996287 214.24874914439343 H 0.0 **** 0.06
14301 C 198.47796228162295 64.91992087117862 169.2098728094135 C 0.0 **** -0.24
14302 H 199.51247241656998 64.90974620663869 168.86448919577066 H 0.0 **** 0.06
14303 H 198.14893312339552 65.95150240764164 169.34058214106312 H 0.0 **** 0.06
14304 H 198.40905805552416 64.39310132502837 170.16147248354412 H 0.0 **** 0.06
14305 H 197.8440967192155 64.42556416972187 168.4742108881044 H 0.0 **** 0.06
14306 C 243.64129721225268 20.911452212691657 242.3470018317467 C 0.0 **** -0.24
14307 H 244.37294175749156 21.717601986778476 242.39209464235603 H 0.0 **** 0.06
14308 H 242.75054989808868 21.258151141348065 241.82206883147197 H 0.0 **** 0.06
14309 H 243.37252955173247 20.60606119694161 243.35825889183639 H 0.0 **** 0.06
14310 H 244.06966636488863 20.062371652478802 241.81412976154917 H 0.0 **** 0.06
14311 C 235.3488299664652 63.09857687219264 77.95715392581471 C 0.0 **** -0.24
14312 H 235.2207810484072 62.36904767225994 77.15832780159079 H 0.0 **** 0.06
14313 H 234.69119568623412 62.845119511385235 78.7884571711549 H 0.0 **** 0.06
14314 H 235.0986941312559 64.09219309870213 77.58526627101276 H 0.0 **** 0.06
14315 H 236.3846489999637 63.08794720642308 78.2965644595003 H 0.0 **** 0.06
14316 C 45.73650146673347 81.40099965427652 121.04239899996756 C 0.0 **** -0.24
14317 H 46.56438969827673 82.106543935073 120.9769092534109 H 0.0 **** 0.06
14318 H 45.541403883871766 81.16589970590698 122.08942456367126 H 0.0 **** 0.06
14319 H 45.99334659475818 80.48746844666309 120.50610441473023 H 0.0 **** 0.06
14320 H 44.845591126190726 81.84455440265899 120.5975534967198 H 0.0 **** 0.06
14321 C 246.041483736426 184.35480037799127 37.408163134796084 C 0.0 **** -0.24
14322 H 245.8241591682451 185.4200628233648 37.48103642221936 H 0.0 **** 0.06
14323 H 246.77016435555385 184.08036245347597 38.17083996585522 H 0.0 **** 0.06
14324 H 246.44915842862224 184.1349644747403 36.42041867891351 H 0.0 **** 0.06
14325 H 245.12430626457902 183.78587746580968 37.55805565265844 H 0.0 **** 0.06
14326 C 209.66562259950712 173.51484846609497 49.457363292499366 C 0.0 **** -0.24
14327 H 210.60819510409164 173.98734609956 49.731437400129465 H 0.0 **** 0.06
14328 H 209.67450251671633 172.47319606187438 49.77850809841439 H 0.0 **** 0.06
14329 H 209.5359625458922 173.5610785299894 48.37596067392954 H 0.0 **** 0.06
14330 H 208.84186198691046 174.03800463426933 49.94458260761459 H 0.0 **** 0.06
14331 C 116.90059894854878 161.6510443117646 110.54369536226761 C 0.0 **** -0.24
14332 H 116.97385054450788 161.55732811941675 109.46028590767463 H 0.0 **** 0.06
14333 H 117.13047857233857 162.67550215916555 110.83650766813906 H 0.0 **** 0.06
14334 H 117.6092045624373 160.96982770453008 111.0152699496945 H 0.0 **** 0.06
14335 H 115.8887981148541 161.3994049751762 110.86199284723668 H 0.0 **** 0.06
14336 C 180.73205461107335 14.294507559083499 141.34025215810408 C 0.0 **** -0.24
14337 H 181.73737966894612 14.70442068289843 141.43291455669782 H 0.0 **** 0.06
14338 H 180.39176864164625 13.941344091027133 142.31425554803477 H 0.0 **** 0.06
14339 H 180.74229416232333 13.463760817367287 140.63423829308815 H 0.0 **** 0.06
14340 H 180.0560311440268 15.070265272099988 140.97806873761485 H 0.0 **** 0.06
14341 C 229.79264674209756 137.61291613835934 33.862233033063006 C 0.0 **** -0.24
14342 H 228.99766270953765 136.90434813356367 33.629442695769825 H 0.0 **** 0.06
14343 H 230.14150608350997 138.08135512077084 32.941513392716075 H 0.0 **** 0.06
14344 H 230.61924358245784 137.08598723751663 34.338419091028044 H 0.0 **** 0.06
14345 H 229.4117334086928 138.37809389426118 34.537490456853874 H 0.0 **** 0.06
14346 C 205.74959727691146 130.2595401018425 207.8982740193085 C 0.0 **** -0.24
14347 H 205.77316232114183 130.14683899390843 206.81441068974283 H 0.0 **** 0.06
14348 H 205.8961134145853 131.30756379073446 208.15726615479247 H 0.0 **** 0.06
14349 H 206.54441675681602 129.6603154122933 208.3420671372389 H 0.0 **** 0.06
14350 H 204.78563451271242 129.92229911195966 208.2776746799958 H 0.0 **** 0.06
14351 C 232.08090041566038 129.43572588446315 9.236598044718292 C 0.0 **** -0.24
14352 H 231.79920978186354 129.94613819567397 8.315898732704682 H 0.0 **** 0.06
14353 H 232.87688617382958 128.7208458658332 9.024971454328295 H 0.0 **** 0.06
14354 H 231.21578119118658 128.90868714264766 9.638668260947199 H 0.0 **** 0.06
14355 H 232.43184043728326 130.16611281192115 9.964678117963857 H 0.0 **** 0.06
14356 C 145.51417988653253 174.65658526647582 3.0595351777155315 C 0.0 **** -0.24
14357 H 144.71581602872638 174.59620111482846 2.3200979113622537 H 0.0 **** 0.06
14358 H 145.13825477867883 174.32361778605264 4.027833456004117 H 0.0 **** 0.06
14359 H 145.85914182971476 175.68714380248414 3.137784277479767 H 0.0 **** 0.06
14360 H 146.34195520239444 174.0179264382412 2.751729241970679 H 0.0 **** 0.06
14361 C 126.05237510543859 35.62263848226361 130.95697394223492 C 0.0 **** -0.24
14362 H 125.86118404268399 35.088513685854664 130.02633693096635 H 0.0 **** 0.06
14363 H 126.2565832983748 34.90531209243193 131.7520679219981 H 0.0 **** 0.06
14364 H 125.17793502903626 36.218088950774685 131.21950177243264 H 0.0 **** 0.06
14365 H 126.91399173981557 36.278103774158126 130.82916706458607 H 0.0 **** 0.06
14366 C 1.9373271030566173 191.36985640811244 193.94328930211907 C 0.0 **** -0.24
14367 H 1.0636944039018772 191.84487907863192 193.49617975717098 H 0.0 **** 0.06
14368 H 2.768004321100932 191.39851432139878 193.23666657921024 H 0.0 **** 0.06
14369 H 1.7029737320778509 190.33429994965283 194.18835639628446 H 0.0 **** 0.06
14370 H 2.2151924038203674 191.90447336190485 194.85153384779346 H 0.0 **** 0.06
14371 C 24.469549269071706 230.0235434723363 34.67168082999328 C 0.0 **** -0.24
14372 H 24.43737446353319 229.01105555711678 34.26917794405685 H 0.0 **** 0.06
14373 H 23.715315907501974 230.12982932910586 35.45099457687505 H 0.0 **** 0.06
14374 H 24.270449150493732 230.73801625163486 33.87274693883148 H 0.0 **** 0.06
14375 H 25.4568231799159 230.21525239927672 35.09243192643693 H 0.0 **** 0.06
14376 C 142.00446087890276 130.42970319817644 57.93144784494956 C 0.0 **** -0.24
14377 H 142.12603048412657 130.57733900437842 59.004723705436106 H 0.0 **** 0.06
14378 H 141.9962771545137 129.36219694728842 57.71083279102106 H 0.0 **** 0.06
14379 H 142.83182488187222 130.90428157551256 57.4032407399265 H 0.0 **** 0.06
14380 H 141.06405955980838 130.87506738024248 57.607928654970635 H 0.0 **** 0.06
14381 C 228.50476419423475 25.741809671152623 138.35228436443782 C 0.0 **** -0.24
14382 H 228.62183434442733 24.65793821012936 138.3745062787923 H 0.0 **** 0.06
14383 H 227.98400323019126 26.0693102484217 139.25275755722942 H 0.0 **** 0.06
14384 H 227.92632669909568 26.027265852695948 137.47435419104016 H 0.0 **** 0.06
14385 H 229.48688603360472 26.2119520174585 138.30961787611108 H 0.0 **** 0.06
14386 C 188.4428286280236 80.36347910306122 113.21029666669517 C 0.0 **** -0.24
14387 H 188.43318388195257 79.93031116886729 114.21075161016964 H 0.0 **** 0.06
14388 H 187.95316966723007 79.68037805211972 112.51510198833924 H 0.0 **** 0.06
14389 H 189.47259869857697 80.52772345558799 112.89430781369171 H 0.0 **** 0.06
14390 H 187.91032573757863 81.31458657419287 113.22091837949506 H 0.0 **** 0.06
14391 C 54.79723045105672 36.51605417663809 115.09352193942445 C 0.0 **** -0.24
14392 H 54.35050095905342 36.177694015342624 116.02864638850517 H 0.0 **** 0.06
14393 H 55.06016567256029 35.65176967931431 114.48305412474394 H 0.0 **** 0.06
14394 H 55.69420620400436 37.09652467819602 115.30804713362852 H 0.0 **** 0.06
14395 H 54.082662435436305 37.13795018590619 114.55432673017773 H 0.0 **** 0.06
14396 C 80.86080570348551 36.50150477700021 193.93200985281317 C 0.0 **** -0.24
14397 H 81.79342716962131 36.10680077681462 193.52915687730447 H 0.0 **** 0.06
14398 H 81.08252473009784 37.22797900154768 194.71489966644188 H 0.0 **** 0.06
14399 H 80.27195889870154 35.68488696441449 194.3492811722173 H 0.0 **** 0.06
14400 H 80.2974751224541 36.985978625407625 193.13578859241935 H 0.0 **** 0.06
14401 C 219.97694727569763 127.87166651441157 220.7259211806848 C 0.0 **** -0.24
14402 H 220.83365097256154 127.19752542812972 220.73481749224268 H 0.0 **** 0.06
14403 H 220.1004094882266 128.62622523841728 221.50317003989693 H 0.0 **** 0.06
14404 H 219.0653604989298 127.302949601921 220.91313016631926 H 0.0 **** 0.06
14405 H 219.90787649339075 128.3592056825539 219.75299191043854 H 0.0 **** 0.06
14406 C 14.121547368488464 107.59058014138415 36.1428413739159 C 0.0 **** -0.24
14407 H 13.723736956901448 106.99676519101914 36.965823907668636 H 0.0 **** 0.06
14408 H 15.1811216366915 107.78502164896753 36.31497637657603 H 0.0 **** 0.06
14409 H 13.583219835671116 108.53625736916825 36.082512162086374 H 0.0 **** 0.06
14410 H 14.000095662228219 107.04325799114221 35.207897247687896 H 0.0 **** 0.06
14411 C 126.98971681864538 158.6181852403822 29.59658162891654 C 0.0 **** -0.24
14412 H 127.66444396594471 158.0216728203774 30.212143808564434 H 0.0 **** 0.06
14413 H 126.65553705068294 159.48809517950457 30.161535737307958 H 0.0 **** 0.06
14414 H 126.12710275445869 158.01337783583264 29.314990508143723 H 0.0 **** 0.06
14415 H 127.51206603302575 158.9461148798299 28.698555456389414 H 0.0 **** 0.06
14416 C 193.10941729388065 217.3026586498921 161.20793402991995 C 0.0 **** -0.24
14417 H 192.4038633043611 217.3053327867607 160.37677340093938 H 0.0 **** 0.06
14418 H 193.17165460474263 216.2984218890701 161.62725802795632 H 0.0 **** 0.06
14419 H 192.7686231186802 217.99683044410793 161.97647122797272 H 0.0 **** 0.06
14420 H 194.09243630330337 217.60915074814963 160.85122016126766 H 0.0 **** 0.06
14421 C 218.63472421455793 195.33676754643034 43.36402897557426 C 0.0 **** -0.24
14422 H 218.08597834872026 194.4643732388779 43.72187773809323 H 0.0 **** 0.06
14423 H 217.92842010014152 196.10336465717262 43.04487080209951 H 0.0 **** 0.06
14424 H 219.26374684594884 195.04877391490297 42.52235697537159 H 0.0 **** 0.06
14425 H 219.25860927043516 195.72764076585096 44.167958160596314 H 0.0 **** 0.06
14426 C 60.016755824674846 82.5249902307292 178.1537342732071 C 0.0 **** -0.24
14427 H 59.39452093312232 83.38831782624857 177.92103326856454 H 0.0 **** 0.06
14428 H 60.36400407378173 82.59546948838204 179.18509449543058 H 0.0 **** 0.06
14429 H 60.874892093998625 82.50301615498859 177.4824252185916 H 0.0 **** 0.06
14430 H 59.43300973095069 81.61235369584384 178.02861978903843 H 0.0 **** 0.06
14431 C 113.73535150398862 150.96100549815012 124.30196437759923 C 0.0 **** -0.24
14432 H 113.46923154867312 151.11385500254397 123.25640339878802 H 0.0 **** 0.06
14433 H 113.20644148771603 151.68614507245522 124.92132240974593 H 0.0 **** 0.06
14434 H 114.80995587259585 151.09180936833138 124.42552148301726 H 0.0 **** 0.06
14435 H 113.45470724230651 149.95152015691556 124.60399702890297 H 0.0 **** 0.06
14436 C 134.21980303211765 64.22095455168756 211.82516260928264 C 0.0 **** -0.24
14437 H 134.08347363599913 64.11079117968805 210.749209125553 H 0.0 **** 0.06
14438 H 134.8264532332315 63.396747880438085 212.20147162307035 H 0.0 **** 0.06
14439 H 133.2475254252622 64.21141480345338 212.31719392097978 H 0.0 **** 0.06
14440 H 134.72094804263526 65.16685139295876 212.03214912836222 H 0.0 **** 0.06
14441 C 3.2180975212789633 241.41018044667615 94.51178785682387 C 0.0 **** -0.24
14442 H 4.130526516469473 241.99107975495414 94.37994369071214 H 0.0 **** 0.06
14443 H 3.115346310980584 240.7037260199309 93.68751004553465 H 0.0 **** 0.06
14444 H 2.3594907921654453 242.08163026709326 94.52517418092114 H 0.0 **** 0.06
14445 H 3.2678286745588707 240.86486646200893 95.45466221052976 H 0.0 **** 0.06
14446 C 235.796686431306 247.70561052048453 203.85816198279858 C 0.0 **** -0.24
14447 H 235.93234781342733 246.62612336995164 203.9317830406756 H 0.0 **** 0.06
14448 H 235.47631788094665 247.96253632268972 202.84850377691515 H 0.0 **** 0.06
14449 H 236.73989706110484 248.20613970507168 204.07869274969798 H 0.0 **** 0.06
14450 H 235.03884107708416 248.02635510278316 204.57271491858825 H 0.0 **** 0.06
14451 C 143.24179488855893 152.04834661688673 31.815046849597564 C 0.0 **** -0.24
14452 H 143.67530851571678 151.52108483947717 30.96606304017027 H 0.0 **** 0.06
14453 H 143.8948862038355 151.94070130515993 32.68135441317722 H 0.0 **** 0.06
14454 H 142.26305643407832 151.62596839299164 32.04302326225988 H 0.0 **** 0.06
14455 H 143.13375681210215 153.10436733912354 31.57035609806232 H 0.0 **** 0.06
14456 C 74.30112206231203 243.1867018871262 187.32536573675753 C 0.0 **** -0.24
14457 H 74.21431989101814 242.36302264664874 188.0341050843166 H 0.0 **** 0.06
14458 H 75.16818259551493 243.0239410375087 186.68563571466626 H 0.0 **** 0.06
14459 H 74.42055682387141 244.12286252911827 187.86941825726439 H 0.0 **** 0.06
14460 H 73.40052199477233 243.23480367106043 186.71296365562355 H 0.0 **** 0.06
14461 C 132.40844550543585 225.7844501929007 246.41121422923328 C 0.0 **** -0.24
14462 H 131.94104499384952 226.76880261316774 246.42537893097 H 0.0 **** 0.06
14463 H 133.29778728171144 225.79574767083454 247.039836629972 H 0.0 **** 0.06
14464 H 132.68805271150137 225.53040975262616 245.38874475064733 H 0.0 **** 0.06
14465 H 131.70428458094239 225.042625990285 246.78943747621338 H 0.0 **** 0.06
14466 C 108.45578866630589 241.22864620343466 209.01774729080364 C 0.0 **** -0.24
14467 H 109.43538305148596 241.5834192300075 208.69797939767793 H 0.0 **** 0.06
14468 H 107.89190646679907 240.88681280417714 208.15000461106098 H 0.0 **** 0.06
14469 H 107.9155962020682 242.04075254629754 209.50511262173143 H 0.0 **** 0.06
14470 H 108.57984140528902 240.40341014355315 209.71922710956335 H 0.0 **** 0.06
14471 C 94.95207102348141 234.39528153464062 152.2439922777083 C 0.0 **** -0.24
14472 H 94.14576190977036 234.00105894626734 151.62493271706887 H 0.0 **** 0.06
14473 H 95.66521247464689 234.9276255885253 151.6139290617234 H 0.0 **** 0.06
14474 H 95.45666773175111 233.57251403901955 152.7508101763477 H 0.0 **** 0.06
14475 H 94.53972328551802 235.08042958681108 152.9843212945878 H 0.0 **** 0.06
14476 C 155.80925497286935 4.202977874901592 115.98689487684223 C 0.0 **** -0.24
14477 H 155.82270039350126 3.5731041250726037 116.87591053524909 H 0.0 **** 0.06
14478 H 155.65989149241258 5.242743541653709 116.28084639464706 H 0.0 **** 0.06
14479 H 154.99653699373656 3.890651661844487 115.33167400951814 H 0.0 **** 0.06
14480 H 156.75834231671894 4.107819738716017 115.459148996513 H 0.0 **** 0.06
14481 C 135.10554096570934 207.03189909622674 196.30440178780464 C 0.0 **** -0.24
14482 H 134.35615333388307 206.2608183838456 196.48889650750252 H 0.0 **** 0.06
14483 H 135.61783595105868 207.26985005676576 197.236233720268 H 0.0 **** 0.06
14484 H 134.6176069051666 207.92650944436022 195.91768710590483 H 0.0 **** 0.06
14485 H 135.82805725785312 206.66780547511638 195.5738570502779 H 0.0 **** 0.06
14486 C 235.8123856107651 82.75874939137739 61.976102931420286 C 0.0 **** -0.24
14487 H 234.77183941480016 82.98736157062334 61.74577782618658 H 0.0 **** 0.06
14488 H 235.95118689423265 82.74718426552465 63.05766015643263 H 0.0 **** 0.06
14489 H 236.4568682380917 83.52050513901321 61.536157589839746 H 0.0 **** 0.06
14490 H 236.06935870753037 81.78259546717936 61.5661945251737 H 0.0 **** 0.06
14491 C 244.73308673378273 65.26389293202962 233.81788342011095 C 0.0 **** -0.24
14492 H 244.18638660210695 66.16657780893479 234.09033808904746 H 0.0 **** 0.06
14493 H 245.31024720824757 64.91584394875247 234.6743980193677 H 0.0 **** 0.06
14494 H 245.40703550872067 65.48432024211303 232.98964889700892 H 0.0 **** 0.06
14495 H 244.0280447541827 64.48997061363272 233.51507553127794 H 0.0 **** 0.06
14496 C 133.85756017482822 119.19005539943655 84.88426851112791 C 0.0 **** -0.24
14497 H 133.41577775254456 120.1560839174991 85.13040215591866 H 0.0 **** 0.06
14498 H 133.2373447467874 118.6862133870728 84.14208077830094 H 0.0 **** 0.06
14499 H 133.91717859340662 118.57843765559127 85.78429459102489 H 0.0 **** 0.06
14500 H 134.85887670138968 119.34048258710956 84.47935931794353 H 0.0 **** 0.06
14501 C 30.714804401239803 241.20873929758437 192.15096764652972 C 0.0 **** -0.24
14502 H 29.770524258413474 241.1930161190026 191.60747031003834 H 0.0 **** 0.06
14503 H 31.119318092242082 240.19743653801513 192.20593112373476 H 0.0 **** 0.06
14504 H 30.54662210465689 241.58871769814192 193.1594078847497 H 0.0 **** 0.06
14505 H 31.422051569397823 241.8561970205214 191.63221865802853 H 0.0 **** 0.06
14506 C 149.87979222456696 25.176969112388377 163.0953984806633 C 0.0 **** -0.24
14507 H 150.85113793032363 24.76815229039653 163.37683215316858 H 0.0 **** 0.06
14508 H 149.089836915166 24.60458501951581 163.58189887192535 H 0.0 **** 0.06
14509 H 149.76083742841806 25.11491020031596 162.0130676486172 H 0.0 **** 0.06
14510 H 149.82038998002687 26.218563852854203 163.40878215120222 H 0.0 **** 0.06
14511 C 249.01343599837656 176.6031959515854 213.4953226306814 C 0.0 **** -0.24
14512 H 250.10235004033052 176.59903567722046 213.43222361104844 H 0.0 **** 0.06
14513 H 248.65255189666527 175.58046913115936 213.60288229687944 H 0.0 **** 0.06
14514 H 248.5988910957761 177.041423022649 212.5879384129786 H 0.0 **** 0.06
14515 H 248.70290086129157 177.19220855555022 214.35782923477456 H 0.0 **** 0.06
14516 C 201.51479558761156 106.51469470763192 161.56620034370206 C 0.0 **** -0.24
14517 H 202.04357157114458 106.56497391051346 160.61380308380257 H 0.0 **** 0.06
14518 H 201.65025689752827 107.45264475318251 162.1060915633311 H 0.0 **** 0.06
14519 H 201.91505860492464 105.69230394589405 162.1599170523504 H 0.0 **** 0.06
14520 H 200.4538146689165 106.34930325449727 161.3838004836674 H 0.0 **** 0.06
14521 C 8.224006583877 121.65515425814277 16.949208827406068 C 0.0 **** -0.24
14522 H 8.325978464449662 121.5499443902234 15.869102264020029 H 0.0 **** 0.06
14523 H 8.458317660394897 120.70558424068747 17.43037165891357 H 0.0 **** 0.06
14524 H 7.201208918971858 121.94281033284761 17.19095348733393 H 0.0 **** 0.06
14525 H 8.911318589614723 122.42273728617221 17.305333909173413 H 0.0 **** 0.06
14526 C 113.02038057055839 171.8743579243405 89.80738225876786 C 0.0 **** -0.24
14527 H 111.99383406880315 172.2369574569469 89.86612265217357 H 0.0 **** 0.06
14528 H 113.56318704935691 172.44467461893365 89.0536365703459 H 0.0 **** 0.06
14529 H 113.0189036435597 170.819342134859 89.53408193259446 H 0.0 **** 0.06
14530 H 113.5049990548718 171.99824621918216 90.77635294661286 H 0.0 **** 0.06
14531 C 42.030117130905126 44.89042106231517 195.0315125392594 C 0.0 **** -0.24
14532 H 42.69292273925534 44.31013454219857 195.67266450220762 H 0.0 **** 0.06
14533 H 41.89971244678854 45.888057030846596 195.45214262914254 H 0.0 **** 0.06
14534 H 41.0613960342685 44.39454134946021 194.96737737294825 H 0.0 **** 0.06
14535 H 42.465008700733804 44.96997639569548 194.03524709294388 H 0.0 **** 0.06
14536 C 108.0540567957161 195.03957060978053 248.82122895747477 C 0.0 **** -0.24
14537 H 107.72123615228753 194.75185389244683 247.82352655330664 H 0.0 **** 0.06
14538 H 107.19294258448801 195.33903189050375 249.418253095216 H 0.0 **** 0.06
14539 H 108.75202453038995 195.87283269786457 248.74464635085093 H 0.0 **** 0.06
14540 H 108.54956503172377 194.19244074266373 249.2964206595641 H 0.0 **** 0.06
14541 C 107.4966450553303 24.359442125027527 1.8310879929063617 C 0.0 **** -0.24
14542 H 106.63493597424912 24.468909561183153 1.1715579157155673 H 0.0 **** 0.06
14543 H 107.68578739480978 23.301020767019025 2.006991268538428 H 0.0 **** 0.06
14544 H 107.29259004822984 24.855127930028488 2.7800414709264203 H 0.0 **** 0.06
14545 H 108.37055324590997 24.813276223289535 1.3642393556259265 H 0.0 **** 0.06
14546 C 161.66559683810215 132.73422372461533 246.075328933824 C 0.0 **** -0.24
14547 H 161.98354123373306 133.62750329763958 245.5368797318079 H 0.0 **** 0.06
14548 H 161.0062537123087 132.1438648686799 245.44011745756114 H 0.0 **** 0.06
14549 H 161.1332144723969 133.0266178822079 246.98086206422946 H 0.0 **** 0.06
14550 H 162.53989185550867 132.1412417669378 246.34291477944544 H 0.0 **** 0.06
14551 C 40.22152352275228 178.64235083895483 218.3303155615219 C 0.0 **** -0.24
14552 H 40.353367453514664 179.28696742744307 219.19960734538094 H 0.0 **** 0.06
14553 H 40.5368384364632 177.62920718312313 218.57927339844656 H 0.0 **** 0.06
14554 H 40.82340749853071 179.0181553810118 217.5040757803066 H 0.0 **** 0.06
14555 H 39.17040383809007 178.63474741772382 218.04087097051854 H 0.0 **** 0.06
14556 C 244.55727280758543 85.90337153427541 72.61172244127064 C 0.0 **** -0.24
14557 H 244.29748799250945 84.99320758167056 73.15166872723364 H 0.0 **** 0.06
14558 H 244.05744325414219 85.9065094967979 71.642863244128 H 0.0 **** 0.06
14559 H 245.63686391710968 85.94264970972844 72.46521362129064 H 0.0 **** 0.06
14560 H 244.2368967317193 86.7713441700273 73.18881450663176 H 0.0 **** 0.06
14561 C 179.89681040400163 101.6772072002992 176.00320903794 C 0.0 **** -0.24
14562 H 179.54993035477597 100.75692688019501 176.47415377139413 H 0.0 **** 0.06
14563 H 179.0833985487178 102.11884327355529 175.42723655189428 H 0.0 **** 0.06
14564 H 180.7323006840387 101.45240041311791 175.3391710244648 H 0.0 **** 0.06
14565 H 180.22185194207748 102.37845718758584 176.77196194079983 H 0.0 **** 0.06
14566 C 11.384508103738682 91.94017530837914 178.53471436388264 C 0.0 **** -0.24
14567 H 11.659342529874635 91.06456256890635 177.94627835079717 H 0.0 **** 0.06
14568 H 12.069633061057914 92.75720940120866 178.30928000592917 H 0.0 **** 0.06
14569 H 11.444729144213312 91.69676566918707 179.59584289066214 H 0.0 **** 0.06
14570 H 10.366427639860746 92.23907768275697 178.2871964879435 H 0.0 **** 0.06
14571 C 38.46728524377524 228.8761615369851 173.43822739346706 C 0.0 **** -0.24
14572 H 37.736234034856366 229.4537267145552 172.8735999479984 H 0.0 **** 0.06
14573 H 39.1609152828259 229.55492102676894 173.93494008453527 H 0.0 **** 0.06
14574 H 39.01924485405266 228.22548221268252 172.75896780568715 H 0.0 **** 0.06
14575 H 37.953410694625674 228.27061048584233 174.18465986829483 H 0.0 **** 0.06
14576 C 53.4127751275132 203.10374238011588 203.8762340510351 C 0.0 **** -0.24
14577 H 54.02885598643397 203.85457160216095 204.37102736528223 H 0.0 **** 0.06
14578 H 52.423882467340334 203.51815283670476 203.6797045346866 H 0.0 **** 0.06
14579 H 53.31919804771357 202.22945713957867 204.52058816138185 H 0.0 **** 0.06
14580 H 53.87953797869011 202.81283070389728 202.9349793512267 H 0.0 **** 0.06
14581 C 97.12394765050627 89.50138948057568 216.80530586301143 C 0.0 **** -0.24
14582 H 97.2525495205409 89.11527142250941 215.79471644996414 H 0.0 **** 0.06
14583 H 96.66871045825187 88.73431251437074 217.43275036872973 H 0.0 **** 0.06
14584 H 96.47815501582451 90.37989323607255 216.77862989053244 H 0.0 **** 0.06
14585 H 98.09502567968605 89.77786275648597 217.21517358725154 H 0.0 **** 0.06
14586 C 185.45079480591158 11.387247469410084 19.404142332547522 C 0.0 **** -0.24
14587 H 185.56798774506214 11.082581420371724 18.364201477522997 H 0.0 **** 0.06
14588 H 184.74974683423113 12.219973079923335 19.46166075641554 H 0.0 **** 0.06
14589 H 186.41764192588565 11.697108989665224 19.80207959422239 H 0.0 **** 0.06
14590 H 185.06890060474785 10.549493664394419 19.98668669990016 H 0.0 **** 0.06
14591 C 2.6431705749400436 208.49276765844303 190.98377266752698 C 0.0 **** -0.24
14592 H 2.939580200194584 207.5248619750626 190.579096877918 H 0.0 **** 0.06
14593 H 2.138978134769303 209.0713605690347 190.20950346386178 H 0.0 **** 0.06
14594 H 3.5293089582066557 209.0309501120944 191.32122783153423 H 0.0 **** 0.06
14595 H 1.9671532281402335 208.34230655678346 191.8252758282372 H 0.0 **** 0.06
14596 C 239.4504087129041 66.4202917021558 2.8124120039091736 C 0.0 **** -0.24
14597 H 239.61514229443412 66.88102302009037 1.8390790413318712 H 0.0 **** 0.06
14598 H 240.2816180064272 65.75248375586142 3.0434017158480344 H 0.0 **** 0.06
14599 H 238.52152167675047 65.84995365571609 2.792538406208081 H 0.0 **** 0.06
14600 H 239.38437693255275 67.19577646774684 3.5751050908702666 H 0.0 **** 0.06
14601 C 7.778050395095391 155.44044273608804 206.31427092229106 C 0.0 **** -0.24
14602 H 7.053730860690337 155.040893269913 205.60540140518606 H 0.0 **** 0.06
14603 H 8.414189986123262 156.16938750826768 205.8120135074313 H 0.0 **** 0.06
14604 H 8.3926451575053 154.62749438012392 206.70184004465318 H 0.0 **** 0.06
14605 H 7.251911258565286 155.9226222482805 207.1380221553547 H 0.0 **** 0.06
14606 C 190.40289370801162 93.02654865332784 190.5068076054124 C 0.0 **** -0.24
14607 H 189.3561443088483 93.29044717300275 190.65935543574258 H 0.0 **** 0.06
14608 H 190.6475314365129 93.11118257253429 189.44728928794595 H 0.0 **** 0.06
14609 H 190.5722032565731 92.00254183393363 190.8385769109509 H 0.0 **** 0.06
14610 H 191.0352086416689 93.70346428205846 191.08118084968865 H 0.0 **** 0.06
14611 C 81.52671833328827 120.12826767699855 85.35319460098901 C 0.0 **** -0.24
14612 H 81.37476874716276 120.54355780728176 86.34959261511804 H 0.0 **** 0.06
14613 H 81.8044132286046 120.92757160701825 84.66599205221215 H 0.0 **** 0.06
14614 H 80.60377510840101 119.65922400346159 85.01101860406533 H 0.0 **** 0.06
14615 H 82.32212307929939 119.38403844514144 85.38597729203215 H 0.0 **** 0.06
14616 C 108.3880653157502 126.52184898491794 190.94896191661394 C 0.0 **** -0.24
14617 H 108.46471884227228 125.56580866102962 191.46600224040546 H 0.0 **** 0.06
14618 H 107.35366336871974 126.86726902598386 190.9742639754229 H 0.0 **** 0.06
14619 H 108.70605762650462 126.40157863987005 189.91322763328307 H 0.0 **** 0.06
14620 H 109.02656962200919 127.25426706918245 191.44340258503138 H 0.0 **** 0.06
14621 C 170.15153014366618 80.7291184576485 133.45631035292323 C 0.0 **** -0.24
14622 H 171.20277623294032 80.83421470316767 133.72472236653175 H 0.0 **** 0.06
14623 H 169.55090223717536 81.40017177121143 134.07116248730995 H 0.0 **** 0.06
14624 H 169.83443987338967 79.70017581683018 133.625609997903 H 0.0 **** 0.06
14625 H 170.01807083908434 80.98269421645733 132.40492245493826 H 0.0 **** 0.06
14626 C 84.9138415833178 223.87729687324725 148.6011574154267 C 0.0 **** -0.24
14627 H 85.04006202514324 224.21084722288205 147.57052744018299 H 0.0 **** 0.06
14628 H 83.856161768052 223.70072338278848 148.7983192425732 H 0.0 **** 0.06
14629 H 85.28645612117094 224.64518567727418 149.2793659109354 H 0.0 **** 0.06
14630 H 85.47210803688631 222.95407090066703 148.75501103188842 H 0.0 **** 0.06
14631 C 105.52862846455471 190.74533035194963 36.842860311728174 C 0.0 **** -0.24
14632 H 105.92474534174971 191.11849546007636 35.89851038224229 H 0.0 **** 0.06
14633 H 106.22476796592784 190.0222070131615 37.26895773024444 H 0.0 **** 0.06
14634 H 104.56657515274117 190.26388895222382 36.668526811700474 H 0.0 **** 0.06
14635 H 105.39842539780008 191.5767299823367 37.535446322725576 H 0.0 **** 0.06
14636 C 215.62957742025313 214.97727128336913 152.4170396367856 C 0.0 **** -0.24
14637 H 215.93254191484115 214.6889028929846 153.42348325331838 H 0.0 **** 0.06
14638 H 216.35946812491088 214.60363739787587 151.69767890344858 H 0.0 **** 0.06
14639 H 215.5778170602164 216.06334390188377 152.3516815008398 H 0.0 **** 0.06
14640 H 214.65080713691967 214.55202080889228 152.19710481305262 H 0.0 **** 0.06
14641 C 77.43330349848671 195.49744570308323 39.614876002280255 C 0.0 **** -0.24
14642 H 77.08173335186422 194.90515202219854 40.459857777001815 H 0.0 **** 0.06
14643 H 77.15239144765252 196.54021563761432 39.76154177660911 H 0.0 **** 0.06
14644 H 76.97987804081603 195.1242207744882 38.69694677295095 H 0.0 **** 0.06
14645 H 78.51731942069551 195.41915037291074 39.543238905158915 H 0.0 **** 0.06
14646 C 14.908901691518196 48.819813182838075 221.73163248257325 C 0.0 **** -0.24
14647 H 13.94652481576955 48.319840177443226 221.62628399629708 H 0.0 **** 0.06
14648 H 14.814340621853177 49.86013744801238 221.41784718689559 H 0.0 **** 0.06
14649 H 15.648224667288758 48.317774004469314 221.1075565496681 H 0.0 **** 0.06
14650 H 15.225905447604902 48.78102693573585 222.7736583037034 H 0.0 **** 0.06
14651 C 70.90216087331359 110.69273709269143 100.5200290801867 C 0.0 **** -0.24
14652 H 71.96140426845633 110.87596836731854 100.69466664513874 H 0.0 **** 0.06
14653 H 70.3309732227606 111.58127931012325 100.78880959251265 H 0.0 **** 0.06
14654 H 70.57337880553231 109.85067477761697 101.12977491806217 H 0.0 **** 0.06
14655 H 70.74207161578423 110.46251536144115 99.46659281935729 H 0.0 **** 0.06
14656 C 192.21119859923212 127.97963974055062 161.43758631271893 C 0.0 **** -0.24
14657 H 192.70468105359788 128.36605463411004 160.54564227340217 H 0.0 **** 0.06
14658 H 191.14573044368112 128.20523035608406 161.3887083356876 H 0.0 **** 0.06
14659 H 192.64178376261972 128.4502924196286 162.32248182059772 H 0.0 **** 0.06
14660 H 192.35307104547894 126.90131484902139 161.49350756332709 H 0.0 **** 0.06
14661 C 214.14217535736537 32.60533188974935 220.32142530552798 C 0.0 **** -0.24
14662 H 213.96017594450396 31.910807672255714 219.50168517118965 H 0.0 **** 0.06
14663 H 213.35968623480957 33.364821814500075 220.3345175878899 H 0.0 **** 0.06
14664 H 215.11186706673053 33.08497450914696 220.1828412886425 H 0.0 **** 0.06
14665 H 214.13724004542252 32.061995345255085 221.2660996445179 H 0.0 **** 0.06
14666 C 5.879960019185688 244.37034052936957 200.36545937055055 C 0.0 **** -0.24
14667 H 5.051362014818807 244.3698842709168 199.65669515304495 H 0.0 **** 0.06
14668 H 6.184493841978252 245.398215643144 200.5660123157254 H 0.0 **** 0.06
14669 H 6.718742568791498 243.8176462671223 199.9436413471565 H 0.0 **** 0.06
14670 H 5.562079929247034 243.897268104637 201.29435995432004 H 0.0 **** 0.06
14671 C 35.130259958196376 54.25726165237572 226.18839587231705 C 0.0 **** -0.24
14672 H 35.80298741839826 54.30427845853339 227.0448704810566 H 0.0 **** 0.06
14673 H 35.707668032596104 54.072066359646925 225.28378315520587 H 0.0 **** 0.06
14674 H 34.59763297675491 55.20405109804378 226.09366560924985 H 0.0 **** 0.06
14675 H 34.41197147751549 53.45024617686286 226.33455761308247 H 0.0 **** 0.06
14676 C 57.03367435840434 168.94158179704016 194.08401973075382 C 0.0 **** -0.24
14677 H 56.93761691142393 168.24218433714842 194.91366285601356 H 0.0 **** 0.06
14678 H 56.06717428499337 169.407706109048 193.88809546159632 H 0.0 **** 0.06
14679 H 57.365798124364574 168.40623551731892 193.194151908888 H 0.0 **** 0.06
14680 H 57.762911666095135 169.7102125505818 194.33891633230007 H 0.0 **** 0.06
14681 C 229.49416288292792 40.157247338656845 43.63053553830353 C 0.0 **** -0.24
14682 H 230.4631027798792 39.915238339042745 44.06855460256682 H 0.0 **** 0.06
14683 H 229.31219826308177 39.511228641418654 42.77222948587864 H 0.0 **** 0.06
14684 H 229.4904973213023 41.19846303207697 43.30952307183826 H 0.0 **** 0.06
14685 H 228.71235574666738 40.004359432735626 44.37441419608864 H 0.0 **** 0.06
14686 C 25.143334005860652 57.13381134549766 48.316157756030634 C 0.0 **** -0.24
14687 H 26.192145807913107 56.92526311912121 48.5292235156591 H 0.0 **** 0.06
14688 H 24.631487581413666 56.20457520054754 48.06532514952059 H 0.0 **** 0.06
14689 H 25.073532208279957 57.825493074660386 47.476530061581386 H 0.0 **** 0.06
14690 H 24.6767792137978 57.580586346212385 49.19397339228429 H 0.0 **** 0.06
14691 C 124.40229645226714 85.26693572021193 229.03756120378108 C 0.0 **** -0.24
14692 H 123.77908506658466 86.13416807095206 228.81923990823907 H 0.0 **** 0.06
14693 H 124.23481037409226 84.50013614124632 228.28046913588855 H 0.0 **** 0.06
14694 H 124.14350244560299 84.87137297909993 230.01941880192538 H 0.0 **** 0.06
14695 H 125.45133834800012 85.56357552689798 229.02953004677397 H 0.0 **** 0.06
14696 C 15.674509908533537 159.02531836641407 183.36955799197153 C 0.0 **** -0.24
14697 H 15.530418562524787 159.12524170848454 184.44570927596124 H 0.0 **** 0.06
14698 H 16.715218550105305 158.77350929223536 183.165111704879 H 0.0 **** 0.06
14699 H 15.425041887869412 159.96802207638734 182.881053124924 H 0.0 **** 0.06
14700 H 15.02718671593911 158.23606434648485 182.98891205002582 H 0.0 **** 0.06
14701 C 209.80511475442773 30.741675418931806 216.07116769834653 C 0.0 **** -0.24
14702 H 210.83659915104536 31.090167133686776 216.03195007400032 H 0.0 **** 0.06
14703 H 209.41400779281526 30.64898759086614 215.05795455162644 H 0.0 **** 0.06
14704 H 209.2016028906743 31.456404727648177 216.6299986274837 H 0.0 **** 0.06
14705 H 209.76824918317612 29.77114222352614 216.56476754027557 H 0.0 **** 0.06
14706 C 203.0757283307299 177.76628684622415 97.85102418208609 C 0.0 **** -0.24
14707 H 202.99091142650252 178.8405305638343 97.68583307858341 H 0.0 **** 0.06
14708 H 203.3355235774501 177.57833419683163 98.89242938326402 H 0.0 **** 0.06
14709 H 203.85122558905465 177.35837491868602 97.20275538740847 H 0.0 **** 0.06
14710 H 202.122866641181 177.2875715834747 97.6226388098379 H 0.0 **** 0.06
14711 C 173.8017688391956 157.6391643129647 153.04456762019726 C 0.0 **** -0.24
14712 H 173.7835724868475 158.71554640528356 153.2144118134315 H 0.0 **** 0.06
14713 H 173.15463762829808 157.1465936236162 153.77062125827828 H 0.0 **** 0.06
14714 H 174.82201373387068 157.27169791346796 153.15810781657976 H 0.0 **** 0.06
14715 H 173.44734705640508 157.42457928813874 152.03641682029354 H 0.0 **** 0.06
14716 C 169.62994694999955 120.98515984847515 133.0934194688254 C 0.0 **** -0.24
14717 H 168.86442301870898 120.32272617471932 132.68875626025635 H 0.0 **** 0.06
14718 H 170.09106556104655 120.51799671025287 133.96396343892928 H 0.0 **** 0.06
14719 H 169.17285123175023 121.93040131275939 133.38790827629825 H 0.0 **** 0.06
14720 H 170.38933516964832 121.16963798672018 132.33428317895795 H 0.0 **** 0.06
14721 C 241.11187608336022 166.8981573059731 6.882824687155903 C 0.0 **** -0.24
14722 H 240.47012465701602 166.74617100967535 6.0150759678128765 H 0.0 **** 0.06
14723 H 241.27078486179488 167.9667576544144 7.034065830020182 H 0.0 **** 0.06
14724 H 242.07134140321966 166.408366518528 6.715325858251916 H 0.0 **** 0.06
14725 H 240.6351313428727 166.47232084796173 7.765825442843422 H 0.0 **** 0.06
14726 C 45.775282079242146 140.21142055021434 245.67579471083098 C 0.0 **** -0.24
14727 H 44.78016713834869 139.76794274299414 245.6389265708009 H 0.0 **** 0.06
14728 H 46.46222801949372 139.61245498153673 245.07805974431454 H 0.0 **** 0.06
14729 H 46.12210961957349 140.2399342381981 246.70878415732653 H 0.0 **** 0.06
14730 H 45.734934167134696 141.22528023288763 245.2770326724495 H 0.0 **** 0.06
14731 C 152.14376206197778 59.538148490960225 52.910591688125265 C 0.0 **** -0.24
14732 H 151.94345328588975 59.62366957909495 53.97866055659418 H 0.0 **** 0.06
14733 H 152.18616988772013 60.53308401817674 52.469282923260806 H 0.0 **** 0.06
14734 H 151.34752617857532 58.962972727773604 52.43649376265088 H 0.0 **** 0.06
14735 H 153.09653764445957 59.03119914895535 52.759097069444834 H 0.0 **** 0.06
14736 C 65.30136726589569 114.50165297765858 124.08382840572881 C 0.0 **** -0.24
14737 H 64.51226066986959 113.75790693486113 123.97341476362897 H 0.0 **** 0.06
14738 H 66.20800705291083 114.1442371389727 123.59667876370312 H 0.0 **** 0.06
14739 H 65.49789435611561 114.66716187543764 125.14227040188084 H 0.0 **** 0.06
14740 H 64.98448936136555 115.4371807995744 123.62273659455411 H 0.0 **** 0.06
14741 C 194.6508467611896 111.37538308880545 71.53218333836014 C 0.0 **** -0.24
14742 H 193.5695865566324 111.25803407830213 71.4585277143955 H 0.0 **** 0.06
14743 H 194.95118615804293 112.29447796298774 71.02786256796244 H 0.0 **** 0.06
14744 H 195.14068935213118 110.52340982489588 71.05907301540813 H 0.0 **** 0.06
14745 H 194.94021116483657 111.42379558848111 72.58193999609603 H 0.0 **** 0.06
14746 C 133.01129533920803 111.86653639856357 112.12921956848155 C 0.0 **** -0.24
14747 H 132.74396445401953 110.8106690266865 112.09471081396538 H 0.0 **** 0.06
14748 H 132.2230829372837 112.4559886185254 111.66087476103249 H 0.0 **** 0.06
14749 H 133.94816375790865 112.02168512212592 111.59516713848049 H 0.0 **** 0.06
14750 H 133.1299628035223 112.1771742038236 113.16739236653447 H 0.0 **** 0.06
14751 C 114.76179345461108 122.99916462137466 80.30225933618559 C 0.0 **** -0.24
14752 H 114.35898773591995 122.93309698964512 81.31375882017392 H 0.0 **** 0.06
14753 H 115.31686170646336 123.93117135622478 80.19402230721144 H 0.0 **** 0.06
14754 H 113.94315956093268 122.97815534134233 79.58271244421698 H 0.0 **** 0.06
14755 H 115.42820472576003 122.15583163329993 80.1212729895947 H 0.0 **** 0.06
14756 C 170.57442653585298 107.2378071028269 188.22754790251636 C 0.0 **** -0.24
14757 H 171.24411427882384 107.89741307439257 188.77929590398395 H 0.0 **** 0.06
14758 H 169.6598607603886 107.77647153147925 187.97787481079163 H 0.0 **** 0.06
14759 H 170.33031168529865 106.37116481949155 188.8416893022602 H 0.0 **** 0.06
14760 H 171.06432993972717 106.9072535245781 187.3112037727492 H 0.0 **** 0.06
14761 C 228.87078298137357 65.9502077498062 136.33543143649962 C 0.0 **** -0.24
14762 H 229.12985888874638 66.70900087235069 137.07356031192816 H 0.0 **** 0.06
14763 H 227.82941450039814 66.074579742763 136.03696054678673 H 0.0 **** 0.06
14764 H 229.0092585815047 64.95962672334628 136.76862343438813 H 0.0 **** 0.06
14765 H 229.51459995484512 66.05762366076488 135.46258145289545 H 0.0 **** 0.06
14766 C 226.30349663643182 152.2938812394481 52.76514986876154 C 0.0 **** -0.24
14767 H 226.90515744056168 153.20032160719427 52.81778720317688 H 0.0 **** 0.06
14768 H 226.03185154709706 151.9787212188847 53.77282078725298 H 0.0 **** 0.06
14769 H 226.87595087178755 151.50512997392778 52.27840132432584 H 0.0 **** 0.06
14770 H 225.39835416960415 152.4923461868684 52.19065761086411 H 0.0 **** 0.06
14771 C 85.90950358015581 204.92215809210202 23.05281049444828 C 0.0 **** -0.24
14772 H 86.01657083894324 205.0625012163851 24.128341050449635 H 0.0 **** 0.06
14773 H 85.01633260758774 204.33049169244381 22.85136557080365 H 0.0 **** 0.06
14774 H 86.78514824768223 204.4014752467042 22.665399397131054 H 0.0 **** 0.06
14775 H 85.81973554209668 205.89280928005576 22.56719076696605 H 0.0 **** 0.06
14776 C 17.759363898909186 71.28652185746313 214.08360347980567 C 0.0 **** -0.24
14777 H 18.217310703338427 71.55888806796261 215.03465707643227 H 0.0 **** 0.06
14778 H 17.56085373481639 70.21481149757267 214.06956108213973 H 0.0 **** 0.06
14779 H 18.43646209274695 71.54204378462691 213.26910538863476 H 0.0 **** 0.06
14780 H 16.822952077750898 71.83199326591924 213.96359339822786 H 0.0 **** 0.06
14781 C 163.6750285914819 234.1639855981818 68.71987026306257 C 0.0 **** -0.24
14782 H 164.30280525069585 234.07626491316103 69.60652640566079 H 0.0 **** 0.06
14783 H 164.00959898496828 233.44953468057193 67.96705480295421 H 0.0 **** 0.06
14784 H 163.75071749012534 235.17541802095317 68.32120723555735 H 0.0 **** 0.06
14785 H 162.63932478493206 233.95508986277304 68.98534672750404 H 0.0 **** 0.06
14786 C 26.836069700104787 64.50486347349664 150.6880915922252 C 0.0 **** -0.24
14787 H 27.508228111853526 65.23013133556591 150.23077971227622 H 0.0 **** 0.06
14788 H 26.860572773809963 64.62030416206852 151.7719322728901 H 0.0 **** 0.06
14789 H 27.155578788544176 63.49611305268394 150.42274819371713 H 0.0 **** 0.06
14790 H 25.82164027109512 64.67137104400811 150.32612235491223 H 0.0 **** 0.06
14791 C 104.92875361669257 114.49549075774624 195.68110486137695 C 0.0 **** -0.24
14792 H 105.11898918102486 115.07252262057207 196.58589943780734 H 0.0 **** 0.06
14793 H 105.71254009210372 114.69698102287495 194.950966516756 H 0.0 **** 0.06
14794 H 103.96168697084471 114.77929978836565 195.2658313288697 H 0.0 **** 0.06
14795 H 104.9219492806634 113.43234299196203 195.92379830823356 H 0.0 **** 0.06
14796 C 115.57268646823718 149.47668062110282 143.3982715326892 C 0.0 **** -0.24
14797 H 116.0760017397183 148.52602073498974 143.574089866238 H 0.0 **** 0.06
14798 H 114.98762130813736 149.74627323660107 144.27822105439336 H 0.0 **** 0.06
14799 H 114.91213323358505 149.3839007403073 142.53611209936315 H 0.0 **** 0.06
14800 H 116.31593512261477 150.25038391364222 143.2049551472135 H 0.0 **** 0.06
14801 C 135.4899924022083 93.27882255241076 244.04567739745755 C 0.0 **** -0.24
14802 H 135.30251679660103 93.12651497993357 245.1090568591902 H 0.0 **** 0.06
14803 H 136.53318126908283 93.05083358134468 243.82461723423066 H 0.0 **** 0.06
14804 H 135.2812388980287 94.31608481734747 243.78497540092815 H 0.0 **** 0.06
14805 H 134.84306401993265 92.62074895000259 243.46600217271083 H 0.0 **** 0.06
14806 C 142.62608755273806 119.37069428277368 191.24390784109846 C 0.0 **** -0.24
14807 H 143.29999070026696 119.60367058244779 192.06835866497084 H 0.0 **** 0.06
14808 H 141.65043224324455 119.81780660760762 191.4357928594122 H 0.0 **** 0.06
14809 H 142.51987459451573 118.28976797739955 191.15564860489698 H 0.0 **** 0.06
14810 H 143.03490352086857 119.7728599528248 190.31654714831646 H 0.0 **** 0.06
14811 C 99.88231983502536 212.0143846227087 219.67792589476832 C 0.0 **** -0.24
14812 H 99.08108533566687 211.27589191347045 219.6889421704314 H 0.0 **** 0.06
14813 H 100.78444899467652 211.57733505506474 220.10667667246116 H 0.0 **** 0.06
14814 H 99.58292776698559 212.88166059119698 220.26686252842055 H 0.0 **** 0.06
14815 H 100.07882024346145 212.32265379466264 218.65122522135295 H 0.0 **** 0.06
14816 C 63.79597516135067 71.47332837857223 28.751276687945577 C 0.0 **** -0.24
14817 H 63.39082163585903 72.48275035003658 28.684228434812482 H 0.0 **** 0.06
14818 H 63.44199640637362 70.88293543913099 27.905527435862112 H 0.0 **** 0.06
14819 H 63.46592233583152 71.01062735183251 29.681656431085415 H 0.0 **** 0.06
14820 H 64.88495736975432 71.51813669033507 28.7328773602989 H 0.0 **** 0.06
14821 C 207.30715940813056 37.78971184261131 80.30415677261774 C 0.0 **** -0.24
14822 H 208.37915342409266 37.61208251322378 80.38871573374021 H 0.0 **** 0.06
14823 H 207.0333983526136 37.86168510162416 79.25152943876202 H 0.0 **** 0.06
14824 H 207.0527358030413 38.720733905537855 80.81099315610666 H 0.0 **** 0.06
14825 H 206.76489846864956 36.96383528294112 80.76597336318673 H 0.0 **** 0.06
14826 C 248.9727259784971 207.3721726557473 59.90390357033917 C 0.0 **** -0.24
14827 H 248.43162893283582 208.25120808200768 59.55472844394734 H 0.0 **** 0.06
14828 H 248.64330408291855 206.49625396869283 59.344097132813914 H 0.0 **** 0.06
14829 H 248.7736334959222 207.2210408899992 60.96511040552119 H 0.0 **** 0.06
14830 H 250.04172852882536 207.51895275531177 59.752729135716805 H 0.0 **** 0.06
14831 C 217.80016045235726 74.91956746841973 233.24751186850978 C 0.0 **** -0.24
14832 H 218.39158622087416 75.21191626933458 234.11472885424493 H 0.0 **** 0.06
14833 H 217.81402975981922 73.83367603952175 233.14735185406425 H 0.0 **** 0.06
14834 H 218.22381659596175 75.37300613905006 232.3505422881773 H 0.0 **** 0.06
14835 H 216.77342117536784 75.26048601678659 233.37556871919602 H 0.0 **** 0.06
14836 C 79.23994703556585 73.77808687467606 192.49744804626798 C 0.0 **** -0.24
14837 H 78.1693479615623 73.86424589005162 192.31245125384282 H 0.0 **** 0.06
14838 H 79.73045646809513 73.3750303099788 191.6105080894365 H 0.0 **** 0.06
14839 H 79.41048450382794 73.11055371564575 193.34192541119268 H 0.0 **** 0.06
14840 H 79.64908661067935 74.76245663314518 192.72249369773442 H 0.0 **** 0.06
14841 C 225.4306164050547 190.55701164762363 194.38106634056564 C 0.0 **** -0.24
14842 H 225.49113124753416 190.9704074603105 193.37398767859216 H 0.0 **** 0.06
14843 H 224.53674947140496 189.9397679164558 194.4669828301226 H 0.0 **** 0.06
14844 H 225.38220295514165 191.3705871235189 195.10487753999547 H 0.0 **** 0.06
14845 H 226.31353046490824 189.94904991146254 194.57766709450215 H 0.0 **** 0.06
14846 C 100.1313252839613 87.43359212474115 199.85879580567007 C 0.0 **** -0.24
14847 H 99.58462767794214 87.60019191523753 198.93128203495047 H 0.0 **** 0.06
14848 H 100.18567700512563 86.36361541215288 200.06174482056062 H 0.0 **** 0.06
14849 H 99.61656899522907 87.93390468844322 200.6788481623234 H 0.0 **** 0.06
14850 H 101.13905228004182 87.837206440617 199.76386241902185 H 0.0 **** 0.06
14851 C 123.64658634981237 43.42897976800451 127.36464731721011 C 0.0 **** -0.24
14852 H 123.65264473830194 42.3430459132241 127.27449455050686 H 0.0 **** 0.06
14853 H 123.81750934084425 43.87536608895962 126.38462580694082 H 0.0 **** 0.06
14854 H 124.43597576543121 43.74127416227698 128.04926556351012 H 0.0 **** 0.06
14855 H 122.68100692502088 43.75513052901364 127.75060148604015 H 0.0 **** 0.06
14856 C 231.0016343549964 47.524326753722505 124.29355887006582 C 0.0 **** -0.24
14857 H 230.73433167622719 48.07542991474858 123.39174339219011 H 0.0 **** 0.06
14858 H 232.08418469793617 47.41291547164485 124.34348719666741 H 0.0 **** 0.06
14859 H 230.5347060425444 46.53999802946501 124.2676459821723 H 0.0 **** 0.06
14860 H 230.64999050547007 48.06983688528965 125.16988065967308 H 0.0 **** 0.06
14861 C 177.72580668468467 145.40207134101962 120.45311053066803 C 0.0 **** -0.24
14862 H 176.6437287358334 145.52346950099312 120.39766349034849 H 0.0 **** 0.06
14863 H 177.96046565011517 144.41310438380307 120.84789794821137 H 0.0 **** 0.06
14864 H 178.14380899222982 146.16434350277703 121.11044437972063 H 0.0 **** 0.06
14865 H 178.15425806016907 145.50723596481782 119.45666164370604 H 0.0 **** 0.06
14866 C 168.78123779398283 230.43983248855932 150.10998285168148 C 0.0 **** -0.24
14867 H 168.58307761166623 231.36456171766264 149.56767208483492 H 0.0 **** 0.06
14868 H 169.2201137722531 230.67582099511029 151.08041826347696 H 0.0 **** 0.06
14869 H 169.47474813494458 229.8245382206009 149.53722292384694 H 0.0 **** 0.06
14870 H 167.8483868072483 229.89687104188104 150.2548360620533 H 0.0 **** 0.06
14871 C 229.42649809962109 76.13882266523035 88.73441987206124 C 0.0 **** -0.24
14872 H 229.77000228006034 76.83968741955232 89.4957030320032 H 0.0 **** 0.06
14873 H 229.42488584322504 76.63160046848657 87.76173235050706 H 0.0 **** 0.06
14874 H 228.41641299400737 75.80648183972093 88.97580386655514 H 0.0 **** 0.06
14875 H 230.09480378385018 75.2786757303266 88.70572624690604 H 0.0 **** 0.06
14876 C 74.68207375538452 222.0420446498167 141.51931222474798 C 0.0 **** -0.24
14877 H 75.52790007929966 222.57999370343234 141.09172573051416 H 0.0 **** 0.06
14878 H 74.59491255503272 222.28435096561702 142.57886644795886 H 0.0 **** 0.06
14879 H 74.8376872829395 220.9692362594712 141.40320381985984 H 0.0 **** 0.06
14880 H 73.76722890918302 222.33396817474815 141.00292076566345 H 0.0 **** 0.06
14881 C 207.0708812834148 160.49945571881068 197.2044157592228 C 0.0 **** -0.24
14882 H 207.72232981925617 161.21395087459007 197.70651837402562 H 0.0 **** 0.06
14883 H 206.8069646751743 160.88021615246493 196.21736404178768 H 0.0 **** 0.06
14884 H 206.1649839736983 160.35785420175063 197.79417812470427 H 0.0 **** 0.06
14885 H 207.5892466655303 159.54580164643698 197.09960249637373 H 0.0 **** 0.06
14886 C 43.33218656109372 67.67230119656261 140.25673172652264 C 0.0 **** -0.24
14887 H 43.27490435479007 67.62244655493731 141.34402323817355 H 0.0 **** 0.06
14888 H 42.660377388984244 66.93128845527764 139.82370849278075 H 0.0 **** 0.06
14889 H 44.354073308675595 67.46848574396887 139.93695632887878 H 0.0 **** 0.06
14890 H 43.038610568555924 68.66820449561345 139.92318812234964 H 0.0 **** 0.06
14891 C 52.710719768369614 99.30107298208745 210.42700577394984 C 0.0 **** -0.24
14892 H 51.88819350232977 98.8272013883228 209.89104978155348 H 0.0 **** 0.06
14893 H 52.42193345475816 100.31195814718649 210.71393122129734 H 0.0 **** 0.06
14894 H 53.58883320321209 99.34177228272182 209.78305785309539 H 0.0 **** 0.06
14895 H 52.94250107243528 98.7219073950445 211.32092200060538 H 0.0 **** 0.06
14896 C 190.9077117479927 167.15515058210198 142.25055801474443 C 0.0 **** -0.24
14897 H 190.1126619454815 167.88605556133575 142.39534504453414 H 0.0 **** 0.06
14898 H 190.89126009518773 166.43395449670598 143.06844256071113 H 0.0 **** 0.06
14899 H 191.87063439199014 167.66531816660603 142.23501507907588 H 0.0 **** 0.06
14900 H 190.75648764502088 166.63584185674605 141.30422863901066 H 0.0 **** 0.06
14901 C 23.121820910089326 182.6842587169735 67.87962181107082 C 0.0 **** -0.24
14902 H 23.359957941147385 182.25344291034645 68.85255606997026 H 0.0 **** 0.06
14903 H 22.93365538810471 181.88392691443607 67.16420423517738 H 0.0 **** 0.06
14904 H 23.959467008960786 183.29025205600993 67.53574153292561 H 0.0 **** 0.06
14905 H 22.232937327942253 183.30916280631385 67.96781154081083 H 0.0 **** 0.06
14906 C 182.73940559160383 226.61938990250854 222.57578990114033 C 0.0 **** -0.24
14907 H 182.24632516492653 227.50511312313216 222.1742146951563 H 0.0 **** 0.06
14908 H 182.29364097703404 226.36159432324826 223.53670608940763 H 0.0 **** 0.06
14909 H 183.8011059568774 226.82477994484097 222.71018792062787 H 0.0 **** 0.06
14910 H 182.61414371316533 225.78810029958277 221.88174189835257 H 0.0 **** 0.06
14911 C 110.06493268769873 66.32713136022193 88.06277641769722 C 0.0 **** -0.24
14912 H 109.04773717193439 66.68590322797391 87.90533563664269 H 0.0 **** 0.06
14913 H 110.07463640163061 65.61250530289735 88.88671514135552 H 0.0 **** 0.06
14914 H 110.71337547532295 67.16932501575391 88.30441740627117 H 0.0 **** 0.06
14915 H 110.42287185450255 65.8403529633145 87.15539616816321 H 0.0 **** 0.06
14916 C 87.08486380080569 10.147497737066473 132.9153201112711 C 0.0 **** -0.24
14917 H 88.12940182616359 9.936223297799017 132.68330285365198 H 0.0 **** 0.06
14918 H 86.44209635200906 9.52932211424637 132.2888861791162 H 0.0 **** 0.06
14919 H 86.87675724181489 11.20023535006888 132.72386058947208 H 0.0 **** 0.06
14920 H 86.8941566350492 9.923092773323006 133.96513855531998 H 0.0 **** 0.06
14921 C 189.34754048128082 179.60066962595033 13.464210909831579 C 0.0 **** -0.24
14922 H 189.2466097878512 180.53784230986608 12.916946875308568 H 0.0 **** 0.06
14923 H 190.16488534457943 179.0185968327304 13.040154082168172 H 0.0 **** 0.06
14924 H 188.4193654177214 179.03460228979355 13.388129455164943 H 0.0 **** 0.06
14925 H 189.5578255198135 179.81417603928588 14.512226073585168 H 0.0 **** 0.06
14926 C 35.08572502759213 70.20926244311724 227.94712221129862 C 0.0 **** -0.24
14927 H 35.558905382535585 69.84849527139548 227.03475991892864 H 0.0 **** 0.06
14928 H 35.02809970114956 69.3973467354958 228.67207239876615 H 0.0 **** 0.06
14929 H 34.081340915513096 70.56541334123992 227.7185819306557 H 0.0 **** 0.06
14930 H 35.67472869887351 71.02710122214361 228.36256291520135 H 0.0 **** 0.06
14931 C 35.40313392533835 243.83723304609563 76.46107671715112 C 0.0 **** -0.24
14932 H 35.0839972373785 244.86558907348842 76.29035112340742 H 0.0 **** 0.06
14933 H 35.00068692648462 243.4853552528381 77.41154818502756 H 0.0 **** 0.06
14934 H 36.49171644144744 243.7945336881226 76.48850725650183 H 0.0 **** 0.06
14935 H 35.03477259779689 243.20383042122225 75.65394561340526 H 0.0 **** 0.06
14936 C 109.22893984320507 239.11963378248237 119.83643679457265 C 0.0 **** -0.24
14937 H 108.5551780564908 238.78291951368195 119.0489686247223 H 0.0 **** 0.06
14938 H 110.04176559155431 239.69799944778293 119.3966970606796 H 0.0 **** 0.06
14939 H 109.6394112049064 238.25341610351808 120.3574836105276 H 0.0 **** 0.06
14940 H 108.68100255984544 239.74156414159086 120.54330376738784 H 0.0 **** 0.06
14941 C 157.20074129380376 18.28040104179604 71.17887791170136 C 0.0 **** -0.24
14942 H 156.98660501324423 19.109913067504777 71.8533562501496 H 0.0 **** 0.06
14943 H 156.8911490803155 17.34487796226611 71.64412171039751 H 0.0 **** 0.06
14944 H 158.26999398934782 18.247350231665877 70.97126558024172 H 0.0 **** 0.06
14945 H 156.65367801947855 18.42126407313205 70.24614592493 H 0.0 **** 0.06
14946 C 236.77815847399378 47.12711499473656 197.77327687859622 C 0.0 **** -0.24
14947 H 235.71646051942236 47.06582922094722 198.01413178239935 H 0.0 **** 0.06
14948 H 237.27708835740947 47.77718604702645 198.4929387300605 H 0.0 **** 0.06
14949 H 236.8992377392205 47.53535898963682 196.76959504303443 H 0.0 **** 0.06
14950 H 237.21875178866352 46.13139267727453 197.81613898316934 H 0.0 **** 0.06
14951 C 53.654604325329075 71.59086505353727 76.14014663704523 C 0.0 **** -0.24
14952 H 52.848941738554146 70.99353268276965 76.5667734086725 H 0.0 **** 0.06
14953 H 53.79738712665275 71.31433357208888 75.09543185192453 H 0.0 **** 0.06
14954 H 54.57532634776723 71.40822797680337 76.69432280539672 H 0.0 **** 0.06
14955 H 53.39601489096893 72.64806049255517 76.20503795721305 H 0.0 **** 0.06
14956 C 20.38768856815362 201.47597104864315 196.07215600338532 C 0.0 **** -0.24
14957 H 21.440387297828735 201.19530987762275 196.03769934992596 H 0.0 **** 0.06
14958 H 19.917656768974396 201.2370293235757 195.1170902731856 H 0.0 **** 0.06
14959 H 20.303903610746644 202.54602337485906 196.26150664904745 H 0.0 **** 0.06
14960 H 19.890240894684226 200.92543829792533 196.86969412601204 H 0.0 **** 0.06
14961 C 126.5987751676607 37.64411754717783 78.79787069282341 C 0.0 **** -0.24
14962 H 127.6130637925909 37.648281106399864 79.19559271666637 H 0.0 **** 0.06
14963 H 126.57527689973526 37.07707318410792 77.86793248045089 H 0.0 **** 0.06
14964 H 126.2799846134671 38.66941349052699 78.60681993411677 H 0.0 **** 0.06
14965 H 125.92624883290028 37.18424377708091 79.5226423969485 H 0.0 **** 0.06
14966 C 226.81233081307647 110.01655723386762 226.81229962633162 C 0.0 **** -0.24
14967 H 226.95580435427803 108.94115148964343 226.70874580251845 H 0.0 **** 0.06
14968 H 226.83197240704078 110.28596895702873 227.86854254596636 H 0.0 **** 0.06
14969 H 225.85098594424323 110.29763175440047 226.3825535107581 H 0.0 **** 0.06
14970 H 227.61093199107398 110.54081352226979 226.28816408654322 H 0.0 **** 0.06
14971 C 186.96961315713455 27.950859345113628 124.56387348964537 C 0.0 **** -0.24
14972 H 186.27931259434777 28.074821874414766 123.7296103469869 H 0.0 **** 0.06
14973 H 187.0094023478726 28.873183855279052 125.1436414519932 H 0.0 **** 0.06
14974 H 187.96324067140384 27.717953136659247 124.18182686403264 H 0.0 **** 0.06
14975 H 186.62483286177775 27.135874697879984 125.20122673028067 H 0.0 **** 0.06
14976 C 2.7516334390657278 196.12191790739843 108.79680709041449 C 0.0 **** -0.24
14977 H 1.7393951672283805 196.26544271348405 108.41839345002157 H 0.0 **** 0.06
14978 H 2.710822947648367 195.8648306881712 109.85540108116868 H 0.0 **** 0.06
14979 H 3.3213428957501634 197.04269797709372 108.66812229852547 H 0.0 **** 0.06
14980 H 3.2351793877380146 195.31567277521475 108.24520426997807 H 0.0 **** 0.06
14981 C 8.319066094366661 160.2644238252443 248.9243528906108 C 0.0 **** -0.24
14982 H 9.024108938800822 161.09415193132972 248.98289718924156 H 0.0 **** 0.06
14983 H 8.631560036503657 159.4740183062095 249.6076509457953 H 0.0 **** 0.06
14984 H 8.296644014838847 159.87745835455019 247.906248509405 H 0.0 **** 0.06
14985 H 7.324282308763287 160.61287136143332 249.2029046960925 H 0.0 **** 0.06
14986 C 141.16263219397993 60.87519949975112 211.02781352732086 C 0.0 **** -0.24
14987 H 140.14282799469072 60.80593908520248 211.40804894327792 H 0.0 **** 0.06
14988 H 141.7799248098401 61.41829709473936 211.74252842524322 H 0.0 **** 0.06
14989 H 141.1589121861908 61.40441545616099 210.07444675071622 H 0.0 **** 0.06
14990 H 141.56570871594536 59.87203808879016 210.8860458376555 H 0.0 **** 0.06
14991 C 161.22185922614554 49.4599688934006 125.81987141627144 C 0.0 **** -0.24
14992 H 160.99162188998807 48.79293228178298 124.98910039059837 H 0.0 **** 0.06
14993 H 161.7394198322072 50.34260913874979 125.44407920535394 H 0.0 **** 0.06
14994 H 161.8593668339184 48.941528191530125 126.53568204252409 H 0.0 **** 0.06
14995 H 160.29549743652424 49.76245190690915 126.30989534070315 H 0.0 **** 0.06
14996 C 139.28917202303703 179.36242494095166 9.66971558050983 C 0.0 **** -0.24
14997 H 138.37927095468748 179.88083659608992 9.369544033314128 H 0.0 **** 0.06
14998 H 139.02874555750316 178.40802608623653 10.128865300100756 H 0.0 **** 0.06
14999 H 139.83635509404616 179.97388564408757 10.387391041146486 H 0.0 **** 0.06
15000 H 139.9131649559861 179.18649861280744 8.793335914929969 H 0.0 **** 0.06
15001 C 198.48363595721065 82.64775704244053 120.42924372857402 C 0.0 **** -0.24
15002 H 198.00609727195948 83.23085497858355 119.64100824201702 H 0.0 **** 0.06
15003 H 198.3023297563135 83.12330227931517 121.39274897038712 H 0.0 **** 0.06
15004 H 199.55717446226856 82.59840182174659 120.24359965545133 H 0.0 **** 0.06
15005 H 198.07011540954653 81.63975136394544 120.43717269057291 H 0.0 **** 0.06
15006 C 52.14354253757037 177.29297274438636 211.04589527439492 C 0.0 **** -0.24
15007 H 51.14344155263328 177.71822073290906 211.12708476037042 H 0.0 **** 0.06
15008 H 52.64581553359241 177.3581902501158 212.01231656287493 H 0.0 **** 0.06
15009 H 52.71524754047536 177.84835582004817 210.30214558433687 H 0.0 **** 0.06
15010 H 52.07158571321216 176.24821771996977 210.74379972332295 H 0.0 **** 0.06
15011 C 209.55229038671558 199.54183014686873 122.92942003541609 C 0.0 **** -0.24
15012 H 208.9350585400353 199.7958905319991 123.79126441760101 H 0.0 **** 0.06
15013 H 210.52441006759634 200.02508356354394 123.0245831876336 H 0.0 **** 0.06
15014 H 209.06285286846324 199.88550354851054 122.01892727667828 H 0.0 **** 0.06
15015 H 209.68577454162613 198.46094221450483 122.88486863480188 H 0.0 **** 0.06
15016 C 160.83821596379252 177.90619002954327 141.19071274804242 C 0.0 **** -0.24
15017 H 160.57242101462387 177.24923986031988 142.01820901889914 H 0.0 **** 0.06
15018 H 159.9626623972595 178.07110229577088 140.56198190318702 H 0.0 **** 0.06
15019 H 161.6288405526645 177.44417822363056 140.598960751289 H 0.0 **** 0.06
15020 H 161.18913870662104 178.86109180194103 141.58258824747193 H 0.0 **** 0.06
15021 C 101.91783014477883 188.3445241750327 54.20439202658861 C 0.0 **** -0.24
15022 H 101.26977623275107 187.48541564974218 54.37784587686474 H 0.0 **** 0.06
15023 H 102.00236896300939 188.92691614883657 55.122006514519796 H 0.0 **** 0.06
15024 H 101.49183411173871 188.9667358803943 53.41759564989863 H 0.0 **** 0.06
15025 H 102.90492148127893 187.9986487190136 53.90012665503042 H 0.0 **** 0.06
15026 C 147.28158224953637 54.232794404995815 157.74239994757224 C 0.0 **** -0.24
15027 H 146.41356479041664 53.6223516926033 157.99141190430186 H 0.0 **** 0.06
15028 H 147.85954455967294 54.42786111327365 158.6465194807503 H 0.0 **** 0.06
15029 H 146.9496368277761 55.17725406554274 157.31227700373705 H 0.0 **** 0.06
15030 H 147.90295145311572 53.702442057360685 157.0213893646028 H 0.0 **** 0.06
15031 C 85.02679403081433 248.716107650356 86.39708761631636 C 0.0 **** -0.24
15032 H 85.77490924094201 249.47450436849203 86.62515472752906 H 0.0 **** 0.06
15033 H 85.46194715583238 247.9639762045136 85.73768740990732 H 0.0 **** 0.06
15034 H 84.17465769986205 249.18310224448248 85.90366762533347 H 0.0 **** 0.06
15035 H 84.69757348367361 248.24171345107465 87.3215964289131 H 0.0 **** 0.06
15036 C 184.34999183234487 219.54990057664173 129.85919089834297 C 0.0 **** -0.24
15037 H 183.74783200875112 220.38587571766647 130.21298697672722 H 0.0 **** 0.06
15038 H 185.3109162540489 219.92122700992394 129.50088722860377 H 0.0 **** 0.06
15039 H 183.82938608557936 219.04409892392798 129.04627029352696 H 0.0 **** 0.06
15040 H 184.51359664482823 218.84904619535166 130.6781916167057 H 0.0 **** 0.06
15041 C 140.74972337953034 147.4900003175282 208.73127669207508 C 0.0 **** -0.24
15042 H 141.79137694663527 147.4518436631675 208.4123480386114 H 0.0 **** 0.06
15043 H 140.46382140718694 148.5256653693174 208.91314347050397 H 0.0 **** 0.06
15044 H 140.6299224324757 146.91310646355214 209.6489023205458 H 0.0 **** 0.06
15045 H 140.11536109413822 147.06791263882934 207.9512670382606 H 0.0 **** 0.06
15046 C 79.39847753581031 69.76578870415872 78.1829150588114 C 0.0 **** -0.24
15047 H 80.23153041467938 69.11546092322874 77.91572552070818 H 0.0 **** 0.06
15048 H 79.77342927687187 70.76810699836435 78.39280743492009 H 0.0 **** 0.06
15049 H 78.89907939809586 69.37272182901162 79.06806617237856 H 0.0 **** 0.06
15050 H 78.69074939125349 69.8083233055697 77.3553806218928 H 0.0 **** 0.06
15051 C 159.0516672803018 78.37854589333483 131.47250667699225 C 0.0 **** -0.24
15052 H 159.29986214562086 77.94587368408253 132.44183667249646 H 0.0 **** 0.06
15053 H 158.8611271980644 77.57900935699249 130.75614895957509 H 0.0 **** 0.06
15054 H 159.88520374374937 78.98802038339616 131.1227004677429 H 0.0 **** 0.06
15055 H 158.16148464360097 79.00029410324544 131.56944278309854 H 0.0 **** 0.06
15056 C 17.046124105706525 157.25675022361386 98.90038373425611 C 0.0 **** -0.24
15057 H 18.021962869388943 157.0907959165543 99.35775388299137 H 0.0 **** 0.06
15058 H 16.94471429135868 156.62114592436583 98.0202355640507 H 0.0 **** 0.06
15059 H 16.95599880653586 158.30291741747092 98.6068378121611 H 0.0 **** 0.06
15060 H 16.262547757488022 157.01152755092684 99.61775359885027 H 0.0 **** 0.06
15061 C 156.9306726730518 65.23030769212346 208.13366323410915 C 0.0 **** -0.24
15062 H 156.85435513408538 65.82601741324271 207.22425566502636 H 0.0 **** 0.06
15063 H 157.7506704383936 64.51882513659942 208.034467415682 H 0.0 **** 0.06
15064 H 155.9977614140702 64.6901981628618 208.29340002703097 H 0.0 **** 0.06
15065 H 157.12012458848685 65.88678055179577 208.9833060599645 H 0.0 **** 0.06
15066 C 40.19130233196813 79.62479388646821 238.3329542690189 C 0.0 **** -0.24
15067 H 40.40175046848705 78.55529323373005 238.3170952872887 H 0.0 **** 0.06
15068 H 41.08620079764684 80.16552626537162 238.6399050684401 H 0.0 **** 0.06
15069 H 39.38532380074972 79.82531833314502 239.0395659957676 H 0.0 **** 0.06
15070 H 39.89141013089039 79.95058202451037 237.3368923598142 H 0.0 **** 0.06
15071 C 186.1759584587592 244.26026221420108 0.8288291578355569 C 0.0 **** -0.24
15072 H 186.95294135798562 244.8202946095733 1.3485231570854097 H 0.0 **** 0.06
15073 H 185.96831503914555 243.33750218377793 1.3709617150222755 H 0.0 **** 0.06
15074 H 186.51390058380608 244.0206725097035 -0.18028603895025697 H 0.0 **** 0.06
15075 H 185.26849029214182 244.86273939319165 0.7736806473044169 H 0.0 **** 0.06
15076 C 152.03960443405512 28.15539491665828 8.422588234348012 C 0.0 **** -0.24
15077 H 151.93189619445565 27.29408758052122 7.762591123676799 H 0.0 **** 0.06
15078 H 151.7309543022966 29.057624967321175 7.895365707729155 H 0.0 **** 0.06
15079 H 153.08169570232792 28.25042974913427 8.727468106843261 H 0.0 **** 0.06
15080 H 151.41432594938348 28.0164723377342 9.304974720124918 H 0.0 **** 0.06
15081 C 125.85750940845904 49.11846728622854 169.7968627273788 C 0.0 **** -0.24
15082 H 125.33786032736299 49.56777125887348 168.9501441502051 H 0.0 **** 0.06
15083 H 125.29083450464023 48.258938001575956 170.15497937290834 H 0.0 **** 0.06
15084 H 125.94986204856463 49.85190773491374 170.59737734886633 H 0.0 **** 0.06
15085 H 126.84953457297692 48.7955183102648 169.48348661716736 H 0.0 **** 0.06
15086 C 96.6651947319771 192.4062777955398 0.5900453558170398 C 0.0 **** -0.24
15087 H 97.40246023399885 192.87689098705187 1.2401687045850593 H 0.0 **** 0.06
15088 H 96.03552456636825 191.73787242631275 1.1788868729591542 H 0.0 **** 0.06
15089 H 97.17599618460699 191.83633073977143 -0.18567288733886755 H 0.0 **** 0.06
15090 H 96.0458634995936 193.1746327593358 0.12766343607552244 H 0.0 **** 0.06
15091 C 153.3728098138774 52.57673335835983 244.66350943682 C 0.0 **** -0.24
15092 H 152.9125160086796 51.636362255532475 244.35859570963652 H 0.0 **** 0.06
15093 H 154.439929321719 52.54602579942136 244.44453554265905 H 0.0 **** 0.06
15094 H 153.22472553811062 52.72196840208616 245.73418698434062 H 0.0 **** 0.06
15095 H 152.91297932823153 53.40023659329253 244.118248119668 H 0.0 **** 0.06
15096 C 56.89489360308232 62.077466484976014 158.4359111436034 C 0.0 **** -0.24
15097 H 56.68034049783654 61.1569527143445 157.89354141111687 H 0.0 **** 0.06
15098 H 57.28090823130543 61.833620308900436 159.42588706368173 H 0.0 **** 0.06
15099 H 55.9804832135774 62.661963496201565 158.53629266641047 H 0.0 **** 0.06
15100 H 57.6383755876783 62.656789017882375 157.8885744016522 H 0.0 **** 0.06
15101 C 182.37810968540091 206.17087270397198 195.2461541030461 C 0.0 **** -0.24
15102 H 182.22241344478786 207.21464463625472 194.9743961266306 H 0.0 **** 0.06
15103 H 181.4391057506251 205.7434160666041 195.59835717872306 H 0.0 **** 0.06
15104 H 183.12620473978185 206.1075256450871 196.03605694767666 H 0.0 **** 0.06
15105 H 182.72393488639304 205.61662647742122 194.37320643750832 H 0.0 **** 0.06
15106 C 33.04590279034581 179.86122529389107 245.14171483734071 C 0.0 **** -0.24
15107 H 33.001541665505215 179.83382856199074 246.2300682129758 H 0.0 **** 0.06
15108 H 32.34127043235486 179.1360924903103 244.73182186588315 H 0.0 **** 0.06
15109 H 34.055162389648714 179.6141043999717 244.8130860348139 H 0.0 **** 0.06
15110 H 32.78384429650188 180.85967668827342 244.79247462986285 H 0.0 **** 0.06
15111 C 139.14471101347334 110.44869332576488 100.55972878424754 C 0.0 **** -0.24
15112 H 138.21962979650303 110.34710421721562 99.9919216268764 H 0.0 **** 0.06
15113 H 139.70391707513448 111.30828177197648 100.19177112088849 H 0.0 **** 0.06
15114 H 139.74462935780508 109.54627460299622 100.44132692734709 H 0.0 **** 0.06
15115 H 138.9086945559825 110.5920404809734 101.61487351761443 H 0.0 **** 0.06
15116 C 105.28580684750446 161.37154571013136 248.15864138551382 C 0.0 **** -0.24
15117 H 106.19558272120935 161.92869571175154 248.38182808449199 H 0.0 **** 0.06
15118 H 105.53360734544702 160.32417203605033 247.9888036372617 H 0.0 **** 0.06
15119 H 104.81765619846473 161.78437713148546 247.26451233121645 H 0.0 **** 0.06
15120 H 104.59557245153053 161.45096968034701 248.99895435576678 H 0.0 **** 0.06
15121 C 3.648837102870317 33.54418532373518 114.67532939828831 C 0.0 **** -0.24
15122 H 4.1903626482561265 33.21177233846814 113.79002987036486 H 0.0 **** 0.06
15123 H 3.4793517735580224 32.69552691123461 115.33826921028947 H 0.0 **** 0.06
15124 H 2.689905443295004 33.96856799326618 114.3761939755291 H 0.0 **** 0.06
15125 H 4.234193720086836 34.302189460586604 115.19586847361509 H 0.0 **** 0.06
15126 C 179.4506047063948 104.70769684706926 107.28522127973045 C 0.0 **** -0.24
15127 H 178.94197165621546 104.74200997275685 108.24814993187636 H 0.0 **** 0.06
15128 H 180.162441303108 105.53220592051147 107.22158135094548 H 0.0 **** 0.06
15129 H 178.7178826907258 104.79822416828605 106.4839492839071 H 0.0 **** 0.06
15130 H 179.98181139621062 103.76086577053698 107.18810313388809 H 0.0 **** 0.06
15131 C 64.06264018125614 217.07266028744323 119.59969099010522 C 0.0 **** -0.24
15132 H 63.413928830588446 216.5151915221715 120.27561460405755 H 0.0 **** 0.06
15133 H 64.18879347994252 218.08892293221132 119.9750350530573 H 0.0 **** 0.06
15134 H 63.61144440606205 217.10551972254467 118.607694919057 H 0.0 **** 0.06
15135 H 65.03442673818864 216.58265184925173 119.54226987790591 H 0.0 **** 0.06
15136 C 193.51178382540758 149.20064361210683 58.66871897907376 C 0.0 **** -0.24
15137 H 194.33036828243297 148.48124712398817 58.64155740589209 H 0.0 **** 0.06
15138 H 193.04399909317783 149.18086186887462 59.65369345006437 H 0.0 **** 0.06
15139 H 192.7734032097631 148.93922686727421 57.910082748413714 H 0.0 **** 0.06
15140 H 193.8992884092413 150.1996830338814 58.47030024129643 H 0.0 **** 0.06
15141 C 38.417551474184066 25.90512044279599 232.89039377941072 C 0.0 **** -0.24
15142 H 38.60081040982563 26.446457713974752 231.9620227898332 H 0.0 **** 0.06
15143 H 39.20777042709132 25.16931265133924 233.0429764771817 H 0.0 **** 0.06
15144 H 37.45489466013018 25.39768900310652 232.8309820150592 H 0.0 **** 0.06
15145 H 38.407863942386385 26.60655059996813 233.7240150632528 H 0.0 **** 0.06
15146 C 242.34808307425192 39.17672504087453 210.06546599410132 C 0.0 **** -0.24
15147 H 241.4845309274711 39.782446566853224 210.34253043480604 H 0.0 **** 0.06
15148 H 242.85686712548318 39.63718129267663 209.21801132996222 H 0.0 **** 0.06
15149 H 242.01609492069076 38.17581780776182 209.79065671426184 H 0.0 **** 0.06
15150 H 243.03220607690162 39.11320380862233 210.91074306362293 H 0.0 **** 0.06
15151 C 83.14591122016884 86.60210239316766 173.21171808050048 C 0.0 **** -0.24
15152 H 83.92689279394037 85.84975960035175 173.31474068779787 H 0.0 **** 0.06
15153 H 82.58687871956434 86.67461550662298 174.14526030885986 H 0.0 **** 0.06
15154 H 82.47107777383201 86.31691410018462 172.40425722549224 H 0.0 **** 0.06
15155 H 83.59879559333868 87.56712036551127 172.98261409985182 H 0.0 **** 0.06
15156 C 212.11215950566424 119.86440651706678 89.82663662602295 C 0.0 **** -0.24
15157 H 211.3706230256413 119.07499019215669 89.94525396999583 H 0.0 **** 0.06
15158 H 211.83012660195595 120.50625138752059 88.99106126254918 H 0.0 **** 0.06
15159 H 213.0875609452935 119.42034686822944 89.6306784209695 H 0.0 **** 0.06
15160 H 212.15963613402607 120.45766383464647 90.74048962621376 H 0.0 **** 0.06
15161 C 198.01911296319327 80.44083528096183 130.8499176362588 C 0.0 **** -0.24
15162 H 197.5612448910026 79.5594419802996 130.4021730259436 H 0.0 **** 0.06
15163 H 198.27302179701337 81.155270498665 130.0664457485461 H 0.0 **** 0.06
15164 H 198.9239365359033 80.14929276098269 131.3837189435476 H 0.0 **** 0.06
15165 H 197.31779459829528 80.90007343255107 131.5478327149619 H 0.0 **** 0.06
15166 C 208.81847621543838 162.25022210654416 118.87981438372941 C 0.0 **** -0.24
15167 H 209.71916943887908 161.72264782037342 118.56702267629183 H 0.0 **** 0.06
15168 H 208.15611683645267 162.3769214158857 118.02381327311625 H 0.0 **** 0.06
15169 H 209.0896594957216 163.22769188062026 119.27734051836913 H 0.0 **** 0.06
15170 H 208.30954579322113 161.6725388436702 119.65176739228605 H 0.0 **** 0.06
15171 C 134.14885097401157 13.87387248322193 189.35346319664677 C 0.0 **** -0.24
15172 H 134.21289539699356 14.557043921723803 190.20085370537083 H 0.0 **** 0.06
15173 H 134.0837847698428 14.448444143814072 188.42899017168963 H 0.0 **** 0.06
15174 H 133.26234064978328 13.248484066086519 189.4573204969833 H 0.0 **** 0.06
15175 H 135.03730315975503 13.243141283939025 189.3279204047828 H 0.0 **** 0.06
15176 C 106.32425199261493 222.61650968721466 103.67207840865234 C 0.0 **** -0.24
15177 H 105.64602393805484 221.86478244904083 104.07617423535143 H 0.0 **** 0.06
15178 H 106.82460464895951 222.21648793943723 102.79009235928771 H 0.0 **** 0.06
15179 H 107.06776559423807 222.87657411371327 104.42492074188496 H 0.0 **** 0.06
15180 H 105.75779529030743 223.5064223140499 103.398217335682 H 0.0 **** 0.06
15181 C 147.71635257593996 231.66384211615602 112.32361898812474 C 0.0 **** -0.24
15182 H 148.62478014679414 231.65326114167883 111.72076745817188 H 0.0 **** 0.06
15183 H 147.38598427151118 232.6925328438254 112.46302747580134 H 0.0 **** 0.06
15184 H 147.92007785062438 231.21206020092666 113.29373479011394 H 0.0 **** 0.06
15185 H 146.93683007764957 231.0963625190729 111.81534725972864 H 0.0 **** 0.06
15186 C 246.3142435198212 84.574652798985 193.0890992344646 C 0.0 **** -0.24
15187 H 246.7487514977683 84.81054789440188 192.11777339402215 H 0.0 **** 0.06
15188 H 245.34711869888065 84.09301524998403 192.94748915741386 H 0.0 **** 0.06
15189 H 246.18299972877583 85.49315812623297 193.66088293252625 H 0.0 **** 0.06
15190 H 246.97942907094387 83.90191211080398 193.63074554093276 H 0.0 **** 0.06
15191 C 113.03095390317597 160.22130981373803 131.32946167152744 C 0.0 **** -0.24
15192 H 113.7571076803138 159.58333861497474 131.83284920284382 H 0.0 **** 0.06
15193 H 113.34290496785067 161.26278822058507 131.41250887507587 H 0.0 **** 0.06
15194 H 112.05284309742214 160.0960276446713 131.7950464749587 H 0.0 **** 0.06
15195 H 112.96999461457298 159.94282508670486 130.27741281774604 H 0.0 **** 0.06
15196 C 150.2624487152367 164.4356986447255 21.735832928764495 C 0.0 **** -0.24
15197 H 151.15505289475848 163.85235872918616 21.962215110895983 H 0.0 **** 0.06
15198 H 150.53479975252247 165.48409583797047 21.612180951029657 H 0.0 **** 0.06
15199 H 149.5496711853938 164.33920312816906 22.556002055323376 H 0.0 **** 0.06
15200 H 149.80951188538467 164.06602410783643 20.816125078512314 H 0.0 **** 0.06
15201 C 132.5705528689353 121.0795072674716 93.20126392855238 C 0.0 **** -0.24
15202 H 131.53951578710146 120.99865764753199 93.54641092581048 H 0.0 **** 0.06
15203 H 133.24699822530832 120.83715568125587 94.02040002817543 H 0.0 **** 0.06
15204 H 132.7599302401391 122.09762488343213 92.8619553741452 H 0.0 **** 0.06
15205 H 132.7331348355123 120.3853616336954 92.37697968841488 H 0.0 **** 0.06
15206 C 176.88196727586475 84.38157982880949 60.71912992505813 C 0.0 **** -0.24
15207 H 176.58376305263616 84.74657447670782 59.73527183722868 H 0.0 **** 0.06
15208 H 176.0150018944719 83.95494790990185 61.22483518975625 H 0.0 **** 0.06
15209 H 177.27690865705992 85.2093718532002 61.308404260435 H 0.0 **** 0.06
15210 H 177.65015581614088 83.61707422606705 60.60482719286486 H 0.0 **** 0.06
15211 C 30.11044559601821 232.05079855898785 200.28701494127898 C 0.0 **** -0.24
15212 H 30.738684252735695 231.9361757743152 199.40341809825526 H 0.0 **** 0.06
15213 H 29.381652418542927 232.8434386107404 200.11440024695997 H 0.0 **** 0.06
15214 H 30.732312446340572 232.30914564723355 201.14346456645632 H 0.0 **** 0.06
15215 H 29.588786376678854 231.11487357714884 200.48513775380246 H 0.0 **** 0.06
15216 C 178.77864067349614 169.53811166517804 103.64696274403403 C 0.0 **** -0.24
15217 H 179.17848417769417 169.14950346132207 104.58343399443706 H 0.0 **** 0.06
15218 H 178.17338078105482 170.4229771415044 103.85032976595218 H 0.0 **** 0.06
15219 H 178.15913712480753 168.776572942656 103.17250441766276 H 0.0 **** 0.06
15220 H 179.60044423989754 169.80441668016826 102.98338298859034 H 0.0 **** 0.06
15221 C 207.5509326341804 30.75410948111903 116.92650877318178 C 0.0 **** -0.24
15222 H 207.8102396987185 29.89048862825321 117.53889054767546 H 0.0 **** 0.06
15223 H 207.32717781448312 30.42637386691915 115.91161089113638 H 0.0 **** 0.06
15224 H 208.38828825483677 31.45121469273319 116.90824812617083 H 0.0 **** 0.06
15225 H 206.67594226112735 31.24865425755914 117.3498501163707 H 0.0 **** 0.06
15226 C 40.35181845675707 11.488057757234657 32.39090809547693 C 0.0 **** -0.24
15227 H 41.32580610834137 11.976919222860275 32.35446499674856 H 0.0 **** 0.06
15228 H 40.481085468424155 10.438877720441852 32.65643560456469 H 0.0 **** 0.06
15229 H 39.87302337638371 11.560162178291549 31.413533137675543 H 0.0 **** 0.06
15230 H 39.72809320948841 11.979226909823112 33.13754672632962 H 0.0 **** 0.06
15231 C 175.39558360968658 126.23613006005345 16.035404917573487 C 0.0 **** -0.24
15232 H 176.25178097312602 125.6251271260833 15.748067020773917 H 0.0 **** 0.06
15233 H 174.99429260258432 126.73565673765157 15.152570724135515 H 0.0 **** 0.06
15234 H 175.71014307870996 126.98252302387101 16.76413425228492 H 0.0 **** 0.06
15235 H 174.6267144632307 125.59991276641588 16.473692904218765 H 0.0 **** 0.06
15236 C 201.55024206491873 123.18894381066164 28.438201429274997 C 0.0 **** -0.24
15237 H 200.71078795591765 122.58359081769709 28.09678215924376 H 0.0 **** 0.06
15238 H 201.6364901066522 124.07717405413732 27.81226942042339 H 0.0 **** 0.06
15239 H 202.4687552679075 122.60526900359832 28.372210593680734 H 0.0 **** 0.06
15240 H 201.38386433676152 123.48724637888108 29.47411822846682 H 0.0 **** 0.06
15241 C 101.1646153419081 172.4680216974893 38.8830442009624 C 0.0 **** -0.24
15242 H 100.26671141898768 172.36846674606906 39.49310233586431 H 0.0 **** 0.06
15243 H 101.30660460773663 171.56196039358215 38.29519854344585 H 0.0 **** 0.06
15244 H 102.02809729306693 172.6199922519457 39.53033890633553 H 0.0 **** 0.06
15245 H 101.05629106632256 173.3228447378741 38.21496561527766 H 0.0 **** 0.06
15246 C 202.5897629692005 237.90049672874306 209.53137975059516 C 0.0 **** -0.24
15247 H 202.53267343170302 238.23363116728615 208.49498658098543 H 0.0 **** 0.06
15248 H 201.90097858816785 237.06910480331263 209.68420684405157 H 0.0 **** 0.06
15249 H 202.31825566488678 238.72312247429437 210.19330137742196 H 0.0 **** 0.06
15250 H 203.60648176007828 237.575380266381 209.7530614135498 H 0.0 **** 0.06
15251 C 229.65168942364548 173.6743791812267 218.03921245385524 C 0.0 **** -0.24
15252 H 230.69957101166767 173.69975233578504 217.7395961106106 H 0.0 **** 0.06
15253 H 229.08304597976613 173.085215327454 217.31991894369395 H 0.0 **** 0.06
15254 H 229.2583749165937 174.69029364753476 218.06924677810224 H 0.0 **** 0.06
15255 H 229.56819115638243 173.22241104255718 219.02778233711416 H 0.0 **** 0.06
15256 C 42.2325978740169 70.95819486842566 117.59381120852149 C 0.0 **** -0.24
15257 H 41.40498806948716 70.68803592308132 116.93808815513384 H 0.0 **** 0.06
15258 H 43.15303600363444 71.01677069027426 117.01161183870644 H 0.0 **** 0.06
15259 H 42.341436507843866 70.20202682443269 118.37152748952971 H 0.0 **** 0.06
15260 H 42.03143765009219 71.92549323347296 118.05328373001274 H 0.0 **** 0.06
15261 C 32.846836321825464 43.73924943733202 244.65157802591614 C 0.0 **** -0.24
15262 H 33.38593675153291 43.172367126190366 243.8923180279289 H 0.0 **** 0.06
15263 H 32.15031644335309 43.079366474666585 245.17024180726952 H 0.0 **** 0.06
15264 H 32.29430023799526 44.549794410870845 244.17500452304466 H 0.0 **** 0.06
15265 H 33.556416863271494 44.15438357773961 245.36682949437358 H 0.0 **** 0.06
15266 C 44.935188234364475 116.46763575086743 120.99549001895957 C 0.0 **** -0.24
15267 H 44.459717189772775 116.59882045833294 120.0241639077955 H 0.0 **** 0.06
15268 H 44.29109657154572 116.87997519343386 121.77306554369531 H 0.0 **** 0.06
15269 H 45.89350415512736 116.98631082008674 121.00393581222409 H 0.0 **** 0.06
15270 H 45.094568162226324 115.4058687634988 121.18136757108209 H 0.0 **** 0.06
15271 C 122.54484473088345 97.38673073373414 163.70508826778638 C 0.0 **** -0.24
15272 H 123.32772773048836 96.8318134409277 164.22275667817027 H 0.0 **** 0.06
15273 H 122.37826299764626 96.94641571512008 162.7211915278059 H 0.0 **** 0.06
15274 H 122.8518971093009 98.42638781711736 163.59057819545183 H 0.0 **** 0.06
15275 H 121.62292633752028 97.34065296435085 164.28472771052452 H 0.0 **** 0.06
15276 C 132.5686978925422 17.734071421714503 47.90198426114844 C 0.0 **** -0.24
15277 H 133.3048647717719 17.024653843503785 47.52360535388706 H 0.0 **** 0.06
15278 H 132.79189789942416 17.96654192940653 48.94451762497121 H 0.0 **** 0.06
15279 H 131.5732279117357 17.297066143947433 47.83179550509291 H 0.0 **** 0.06
15280 H 132.60648934077767 18.647796706134244 47.309778663692754 H 0.0 **** 0.06
15281 C 234.51783427809448 117.53952557436824 96.57462250139471 C 0.0 **** -0.24
15282 H 234.63200785567577 116.72925387261566 95.85536752511743 H 0.0 **** 0.06
15283 H 235.06587555525456 117.29754846989104 97.48563864603457 H 0.0 **** 0.06
15284 H 233.46148723337063 117.67098510177797 96.80913877643334 H 0.0 **** 0.06
15285 H 234.91228275884768 118.46168093742327 96.14660327077976 H 0.0 **** 0.06
15286 C 156.2205341649028 192.027722722601 54.99079345218885 C 0.0 **** -0.24
15287 H 156.785245351097 191.09547260253493 54.96830873082476 H 0.0 **** 0.06
15288 H 155.23650407716443 191.86734701916828 54.55090939509293 H 0.0 **** 0.06
15289 H 156.75445674592584 192.78981218142724 54.421914803747285 H 0.0 **** 0.06
15290 H 156.10764881225003 192.35894803779075 56.02417928457223 H 0.0 **** 0.06
15291 C 120.72636193342268 70.91939310177446 59.81508105579755 C 0.0 **** -0.24
15292 H 120.84016096268684 69.83985627575694 59.72051053509128 H 0.0 **** 0.06
15293 H 120.28704476840781 71.32010138578974 58.901251271841915 H 0.0 **** 0.06
15294 H 121.70319695884214 71.37449233440984 59.97953345983248 H 0.0 **** 0.06
15295 H 120.07477506808038 71.14278942523154 60.66098248463513 H 0.0 **** 0.06
15296 C 86.69202451785358 122.40112065846608 123.4940591126946 C 0.0 **** -0.24
15297 H 85.89827922636547 121.9073972062208 124.05503873602754 H 0.0 **** 0.06
15298 H 86.3959525933964 122.48979162721858 122.44876516146982 H 0.0 **** 0.06
15299 H 87.60645491033128 121.81235636910398 123.56509597424701 H 0.0 **** 0.06
15300 H 86.86572013181055 123.39314424243437 123.90931758417864 H 0.0 **** 0.06
15301 C 61.23492742883076 101.25883084669218 204.29585918651608 C 0.0 **** -0.24
15302 H 61.987684699793675 100.56682788053996 204.67293073268453 H 0.0 **** 0.06
15303 H 61.71259846394841 102.202043306956 204.0266785273938 H 0.0 **** 0.06
15304 H 60.486446580815596 101.43687444142898 205.0669813898589 H 0.0 **** 0.06
15305 H 60.75583619972062 100.83059545890805 203.41550209173306 H 0.0 **** 0.06
15306 C 178.60328146056318 232.95549353524225 76.69077417821757 C 0.0 **** -0.24
15307 H 178.20215206549182 232.54961248522304 77.61953267858445 H 0.0 **** 0.06
15308 H 178.69756586043832 234.03786882068124 76.77829424619782 H 0.0 **** 0.06
15309 H 177.9310738956207 232.71383695198475 75.86821923030658 H 0.0 **** 0.06
15310 H 179.58403563046966 232.51996917050386 76.49832844616637 H 0.0 **** 0.06
15311 C 151.08166745613752 0.27441399175536674 8.03521912063566 C 0.0 **** -0.24
15312 H 150.76410577426606 1.2724809708914933 8.337203314177273 H 0.0 **** 0.06
15313 H 151.14563948206828 0.22717398709603742 6.947731401533304 H 0.0 **** 0.06
15314 H 150.35878841882328 -0.4600241336809461 8.38939294724814 H 0.0 **** 0.06
15315 H 152.05901375581678 0.0585045168969458 8.46655295419609 H 0.0 **** 0.06
15316 C 97.87903594420729 33.15549704466153 77.7455738542788 C 0.0 **** -0.24
15317 H 98.25072959609722 33.34391080776797 76.73809896252536 H 0.0 **** 0.06
15318 H 97.83992062124716 34.09370612508869 78.29980150612315 H 0.0 **** 0.06
15319 H 98.54689543316411 32.45962909206608 78.2540658126446 H 0.0 **** 0.06
15320 H 96.87981421650866 32.72404053244455 77.69015921904798 H 0.0 **** 0.06
15321 C 52.153376875603314 6.924051661889237 213.38566241859706 C 0.0 **** -0.24
15322 H 52.379179987081145 7.390381059560923 212.4263212783249 H 0.0 **** 0.06
15323 H 53.08356818362782 6.661497154961367 213.88944990290975 H 0.0 **** 0.06
15324 H 51.562773213445396 6.023088983419214 213.2204076670821 H 0.0 **** 0.06
15325 H 51.588070414613185 7.620800211521441 214.00427993294107 H 0.0 **** 0.06
15326 C 33.53964624598042 21.858373138992093 18.38113274133218 C 0.0 **** -0.24
15327 H 33.491182507351 21.493176876038717 17.355470749888497 H 0.0 **** 0.06
15328 H 33.148571050474004 22.875265893224025 18.42349892772117 H 0.0 **** 0.06
15329 H 34.57647843193976 21.853056035156357 18.71910067916386 H 0.0 **** 0.06
15330 H 32.944517284803524 21.2116154108288 19.02537766685697 H 0.0 **** 0.06
15331 C 150.9000261261757 38.20354731830881 103.19964960215896 C 0.0 **** -0.24
15332 H 150.44414720372532 37.386742111356824 103.75920230829735 H 0.0 **** 0.06
15333 H 150.14625757276474 38.680507017550866 102.57353541281896 H 0.0 **** 0.06
15334 H 151.6994436307786 37.81046593756369 102.57167806712337 H 0.0 **** 0.06
15335 H 151.31163725997664 38.93575558071947 103.89494156430203 H 0.0 **** 0.06
15336 C 212.55307148420928 217.03022640990883 210.30998105104635 C 0.0 **** -0.24
15337 H 213.29761967322997 216.6272757570098 209.62363250138762 H 0.0 **** 0.06
15338 H 213.04998569325267 217.40616632541605 211.2048313327607 H 0.0 **** 0.06
15339 H 211.85132779316675 216.2433562648988 210.58668258105527 H 0.0 **** 0.06
15340 H 212.0133527771876 217.84410729231072 209.82477778898163 H 0.0 **** 0.06
15341 C 136.60936033649185 28.31473583071292 1.6366869038514267 C 0.0 **** -0.24
15342 H 137.17712560417843 28.91820556742013 2.3454833871630285 H 0.0 **** 0.06
15343 H 136.3872157497264 27.344569542226594 2.0813831220503687 H 0.0 **** 0.06
15344 H 137.19572108180753 28.172684793193838 0.7288669060226312 H 0.0 **** 0.06
15345 H 135.67680284709624 28.82355264422378 1.391828674836404 H 0.0 **** 0.06
15346 C 242.16238515174004 176.61197478150677 148.10931646289418 C 0.0 **** -0.24
15347 H 241.67152441112881 177.5805144380937 148.20372109347713 H 0.0 **** 0.06
15348 H 242.0139815901234 176.038720241976 149.02439251653422 H 0.0 **** 0.06
15349 H 243.22934642334403 176.76068981049133 147.94203807809905 H 0.0 **** 0.06
15350 H 241.73572219845667 176.06905512309422 147.26545181395656 H 0.0 **** 0.06
15351 C 73.37205279597228 21.82923505376695 199.26192937317052 C 0.0 **** -0.24
15352 H 72.37060229416963 21.84575753145927 199.6918787522169 H 0.0 **** 0.06
15353 H 74.08309426603856 21.47921806129588 200.01107135810764 H 0.0 **** 0.06
15354 H 73.64617690634518 22.833678418316822 198.94113807430404 H 0.0 **** 0.06
15355 H 73.38710095522481 21.156533504078226 198.40426058546257 H 0.0 **** 0.06
15356 C 121.86709188805199 75.85730898736296 137.4970821987321 C 0.0 **** -0.24
15357 H 121.1128469596442 76.49901299406116 137.04043448389575 H 0.0 **** 0.06
15358 H 122.57877922864682 76.47132635436557 138.04913507031577 H 0.0 **** 0.06
15359 H 122.39158605865063 75.30298565160788 136.71871912495553 H 0.0 **** 0.06
15360 H 121.38371806450036 75.1585994790527 138.17919973206565 H 0.0 **** 0.06
15361 C 205.42346415406502 105.2647620709846 231.24145782484385 C 0.0 **** -0.24
15362 H 205.45148991295514 106.2407621437396 231.72679481269006 H 0.0 **** 0.06
15363 H 204.94218804992806 104.54434590633045 231.90405004141297 H 0.0 **** 0.06
15364 H 206.4407570084852 104.937496092006 231.02590319185992 H 0.0 **** 0.06
15365 H 204.86026002572657 105.33779688121788 230.31162634237057 H 0.0 **** 0.06
15366 C 81.37325463461067 25.6910396114898 68.01468970985533 C 0.0 **** -0.24
15367 H 80.46992206254424 25.092223635956515 68.12877851699193 H 0.0 **** 0.06
15368 H 82.2338392185363 25.031412982755754 67.8970994567274 H 0.0 **** 0.06
15369 H 81.50976015590098 26.31431550286044 68.89845380471655 H 0.0 **** 0.06
15370 H 81.27833870669224 26.32635914036443 67.13363032494942 H 0.0 **** 0.06
15371 C 213.73721308428003 31.933917217740543 43.342758678392244 C 0.0 **** -0.24
15372 H 213.23959138620194 32.32916754437491 44.22779392320146 H 0.0 **** 0.06
15373 H 213.71430314314614 30.84479108505826 43.368680943840715 H 0.0 **** 0.06
15374 H 214.77257668525863 32.276054112385225 43.32514787916756 H 0.0 **** 0.06
15375 H 213.2232541409421 32.28768852081515 42.44908444391706 H 0.0 **** 0.06
15376 C 81.89212007540581 59.89068147537611 148.6818291725369 C 0.0 **** -0.24
15377 H 81.85650511868766 59.602239599383466 147.63085037301076 H 0.0 **** 0.06
15378 H 82.88477638758204 59.68212630543974 149.08266551065734 H 0.0 **** 0.06
15379 H 81.14823330367324 59.32219718200011 149.23887372712002 H 0.0 **** 0.06
15380 H 81.68030279760384 60.9564056786798 148.7728892647532 H 0.0 **** 0.06
15381 C 196.08775984392503 171.20885226424778 170.14794813391498 C 0.0 **** -0.24
15382 H 195.17270734864303 170.7403354326175 169.78760459709903 H 0.0 **** 0.06
15383 H 196.69896336932177 170.4662450804908 170.6616371430501 H 0.0 **** 0.06
15384 H 195.83645418332043 172.01349842656523 170.83986691507994 H 0.0 **** 0.06
15385 H 196.64460408754454 171.6161748744883 169.30388039264648 H 0.0 **** 0.06
15386 C 209.20410376005896 48.00543165345944 86.07416203801577 C 0.0 **** -0.24
15387 H 208.47186292093448 48.43601915742377 86.75754650433907 H 0.0 **** 0.06
15388 H 208.82693205126847 47.057650889424664 85.68809117790727 H 0.0 **** 0.06
15389 H 210.1404460868491 47.83422853143071 86.60548690056837 H 0.0 **** 0.06
15390 H 209.37543812894512 48.692652213934906 85.24630094251967 H 0.0 **** 0.06
15391 C 5.551851697537316 163.25003534977256 118.52162832004862 C 0.0 **** -0.24
15392 H 5.175028574253474 164.21206554454363 118.17387868262861 H 0.0 **** 0.06
15393 H 4.713040778386258 162.59500548831394 118.7544644849049 H 0.0 **** 0.06
15394 H 6.158102828879308 163.39875410350663 119.4154045061799 H 0.0 **** 0.06
15395 H 6.162373170490241 162.79655660404322 117.74112712080498 H 0.0 **** 0.06
15396 C 175.76895072811277 246.5607080624644 163.70805940803714 C 0.0 **** -0.24
15397 H 174.7855455971325 246.77927038995958 164.12622617160298 H 0.0 **** 0.06
15398 H 175.65117722911606 246.06557341365655 162.74394133647147 H 0.0 **** 0.06
15399 H 176.31661466032102 245.9087194370842 164.38767297990904 H 0.0 **** 0.06
15400 H 176.3209277609268 247.49145382121014 163.57303249387346 H 0.0 **** 0.06
15401 C 209.45426330375773 188.50733907229557 80.14054501763223 C 0.0 **** -0.24
15402 H 208.43728911679713 188.398095218709 80.51648496856973 H 0.0 **** 0.06
15403 H 209.98510220676877 189.24831442767356 80.73839211540576 H 0.0 **** 0.06
15404 H 209.4243890169423 188.83281780028696 79.10031057213814 H 0.0 **** 0.06
15405 H 209.97033456041981 187.55025951571895 80.20600290489006 H 0.0 **** 0.06
15406 C 187.09051691076502 8.069509440745023 56.206264943060376 C 0.0 **** -0.24
15407 H 187.41989378479826 8.601728571442933 57.098582845832425 H 0.0 **** 0.06
15408 H 186.88902990487531 8.786055574012323 55.41019635865297 H 0.0 **** 0.06
15409 H 186.1824476551529 7.510864714302315 56.43208757582099 H 0.0 **** 0.06
15410 H 187.87197711181025 7.379960334166512 55.88593455213956 H 0.0 **** 0.06
15411 C 48.405996864463575 98.28127553076732 199.64511317134446 C 0.0 **** -0.24
15412 H 47.71068602337421 98.77147158172534 200.32700703481453 H 0.0 **** 0.06
15413 H 47.84789242640964 97.7862490551255 198.8511290516063 H 0.0 **** 0.06
15414 H 48.99114314984921 97.54286717852077 200.19386949763938 H 0.0 **** 0.06
15415 H 49.0739583304247 99.02537446520861 199.21130466030178 H 0.0 **** 0.06
15416 C 14.01488187780771 147.7665941749566 106.40034348806824 C 0.0 **** -0.24
15417 H 14.701361741401655 148.1495095538131 107.15540029220179 H 0.0 **** 0.06
15418 H 13.800558983440936 148.55019977700985 105.67381783566438 H 0.0 **** 0.06
15419 H 13.087744783444322 147.44995236580715 106.87921753451323 H 0.0 **** 0.06
15420 H 14.471262581451555 146.91529465738697 105.89435992840282 H 0.0 **** 0.06
15421 C 49.354947815323854 43.262473634136 26.94379795180376 C 0.0 **** -0.24
15422 H 48.64964810616128 43.25397356390559 26.11224900748894 H 0.0 **** 0.06
15423 H 48.87487354614643 42.84755582817198 27.83084726998092 H 0.0 **** 0.06
15424 H 49.66608290823201 44.28670419466809 27.145188779352168 H 0.0 **** 0.06
15425 H 50.22698213908852 42.661403810632095 26.686635022601195 H 0.0 **** 0.06
15426 C 104.39563031739993 21.759648306148364 187.28111302538463 C 0.0 **** -0.24
15427 H 104.41294376613641 20.929670226832442 187.9870012565977 H 0.0 **** 0.06
15428 H 104.99902003305814 22.580556393923345 187.6701790141086 H 0.0 **** 0.06
15429 H 103.36870029319903 22.096712479379363 187.14194753995963 H 0.0 **** 0.06
15430 H 104.80260836351133 21.431510927488162 186.32467991248984 H 0.0 **** 0.06
15431 C 106.2800270541654 78.61325069910984 174.97221508794348 C 0.0 **** -0.24
15432 H 107.23305429457574 78.4592762543179 174.46475914713824 H 0.0 **** 0.06
15433 H 105.85103636463745 79.56483494548436 174.65782205018886 H 0.0 **** 0.06
15434 H 106.44010801851309 78.62347456114927 176.0498932017557 H 0.0 **** 0.06
15435 H 105.5969008701924 77.80376522598985 174.71431499503333 H 0.0 **** 0.06
15436 C 150.4626897819926 175.25646876509614 14.80404684084374 C 0.0 **** -0.24
15437 H 151.2792186886156 174.91456169275259 14.167024329162217 H 0.0 **** 0.06
15438 H 149.77722291320256 175.8686237464889 14.218416399069369 H 0.0 **** 0.06
15439 H 150.8678216391707 175.84804791247046 15.625518001404131 H 0.0 **** 0.06
15440 H 149.93004119891586 174.3940430274201 15.204959430035203 H 0.0 **** 0.06
15441 C 241.53047984892174 58.20888893529886 65.5617106567741 C 0.0 **** -0.24
15442 H 240.86950039456718 59.07199561902951 65.47774286404407 H 0.0 **** 0.06
15443 H 242.47352785647507 58.515970828062024 66.01421672142115 H 0.0 **** 0.06
15444 H 241.71895604430125 57.80033037724397 64.56885759693913 H 0.0 **** 0.06
15445 H 241.0579759625939 57.44893723493601 66.18350648572019 H 0.0 **** 0.06
15446 C 197.48783378574495 72.97973938007169 224.86692810634668 C 0.0 **** -0.24
15447 H 196.7306123810949 72.55049274914614 224.2124507403973 H 0.0 **** 0.06
15448 H 198.1012976344228 72.18223571402052 225.28600396679127 H 0.0 **** 0.06
15449 H 197.0017250106547 73.52739062926466 225.67503759670433 H 0.0 **** 0.06
15450 H 198.1182274625179 73.66105863526835 224.29511042704286 H 0.0 **** 0.06
15451 C 77.02021170146719 140.62749171865568 245.11943965700226 C 0.0 **** -0.24
15452 H 76.64994235773901 140.32837838001805 246.09981988375608 H 0.0 **** 0.06
15453 H 76.49994921917295 141.5288710654403 244.79510681227953 H 0.0 **** 0.06
15454 H 76.84006725597095 139.826607982906 244.4022048338988 H 0.0 **** 0.06
15455 H 78.09002787312349 140.82722298551613 245.18076949899924 H 0.0 **** 0.06
15456 C 118.64571244254904 124.40457538297602 110.2387784327679 C 0.0 **** -0.24
15457 H 118.9036687252904 125.30304770481428 110.79870843238848 H 0.0 **** 0.06
15458 H 117.58600145369195 124.42941751080619 109.98165575086199 H 0.0 **** 0.06
15459 H 118.8512109555941 123.52491886573634 110.84981472826078 H 0.0 **** 0.06
15460 H 119.24082152409531 124.36101145491321 109.32685193901847 H 0.0 **** 0.06
15461 C 156.1503342314357 102.67090119991636 167.11223899820843 C 0.0 **** -0.24
15462 H 155.5113132230218 102.99553713695747 167.93329942597222 H 0.0 **** 0.06
15463 H 155.7307745322528 101.77339695854803 166.65861320861302 H 0.0 **** 0.06
15464 H 157.14849240217245 102.45456708952105 167.49259591597914 H 0.0 **** 0.06
15465 H 156.2106712150133 103.46203987692712 166.36395387572202 H 0.0 **** 0.06
15466 C 196.62849074867535 86.0343931885771 234.90501904068628 C 0.0 **** -0.24
15467 H 195.91050612176616 85.3477282355228 234.4578972727179 H 0.0 **** 0.06
15468 H 197.63461755277734 85.77271846519184 234.57829628892637 H 0.0 **** 0.06
15469 H 196.56912006549138 85.96497539715389 235.99157730858684 H 0.0 **** 0.06
15470 H 196.39816766473274 87.05353841368645 234.59312183840316 H 0.0 **** 0.06
15471 C 2.0198019827114706 177.39133308713554 208.5099042103102 C 0.0 **** -0.24
15472 H 1.627492392678235 177.59681436315188 207.51418728529825 H 0.0 **** 0.06
15473 H 1.6872662588724836 178.16804884701918 209.19846371289134 H 0.0 **** 0.06
15474 H 3.1091936286729975 177.37747112495228 208.4747011171154 H 0.0 **** 0.06
15475 H 1.6549452161881817 176.42184664571943 208.85100853642155 H 0.0 **** 0.06
15476 C 83.10342785940315 102.6215635620139 87.23309440134955 C 0.0 **** -0.24
15477 H 82.25466522546299 103.07608718341046 87.74439063730438 H 0.0 **** 0.06
15478 H 83.267677218937 103.12761018507746 86.28162000086184 H 0.0 **** 0.06
15479 H 82.89681107206562 101.5671374126349 87.05388348279692 H 0.0 **** 0.06
15480 H 83.99446449113671 102.71665000870468 87.85369883088501 H 0.0 **** 0.06
15481 C 137.16979430133694 181.3678262458534 90.92799726911969 C 0.0 **** -0.24
15482 H 137.13575377039692 180.44665220840145 90.34673123790341 H 0.0 **** 0.06
15483 H 136.96283312357778 181.14503084856344 91.97514475611854 H 0.0 **** 0.06
15484 H 136.42016823404887 182.0639272612629 90.55032053605183 H 0.0 **** 0.06
15485 H 138.15897056382244 181.81657193428182 90.84014402428483 H 0.0 **** 0.06
15486 C 188.53134814460321 24.77079088046142 182.61031182559714 C 0.0 **** -0.24
15487 H 189.11567721497175 24.69100027363048 183.52707055454798 H 0.0 **** 0.06
15488 H 188.30077703500717 25.818167529576343 182.41716762775778 H 0.0 **** 0.06
15489 H 187.6044675321089 24.207371674035784 182.72038317763185 H 0.0 **** 0.06
15490 H 189.105832846086 24.364907941959615 181.77772132849742 H 0.0 **** 0.06
15491 C 130.17903769024275 76.0384960178232 154.4909522918115 C 0.0 **** -0.24
15492 H 130.91537540431594 75.3413187312467 154.09173910781624 H 0.0 **** 0.06
15493 H 130.18158418706778 76.9503938744723 153.89383137977404 H 0.0 **** 0.06
15494 H 130.4292947492242 76.28045829786242 155.52395917960365 H 0.0 **** 0.06
15495 H 129.18936361273572 75.58251665186887 154.4538091429434 H 0.0 **** 0.06
15496 C 213.5372523251043 147.07519728846705 52.049857609366626 C 0.0 **** -0.24
15497 H 212.53688274868705 147.009676659511 51.62391123851182 H 0.0 **** 0.06
15498 H 214.22137544873627 146.456369840224 51.46815259628963 H 0.0 **** 0.06
15499 H 213.51640195290116 146.7230890154646 53.08145762879863 H 0.0 **** 0.06
15500 H 213.87505755006492 148.11096909087456 52.02692365769511 H 0.0 **** 0.06
15501 C 220.04057484986123 60.08045156670315 26.53914647091753 C 0.0 **** -0.24
15502 H 219.78302910815913 59.03135381358595 26.685572790468683 H 0.0 **** 0.06
15503 H 219.70016987404478 60.40356105828968 25.55520273216203 H 0.0 **** 0.06
15504 H 221.1212738680727 60.20199905951836 26.60975386333601 H 0.0 **** 0.06
15505 H 219.55574148374447 60.683574023995305 27.30776373078899 H 0.0 **** 0.06
15506 C 59.75940454179374 30.058462417630807 61.056536321718056 C 0.0 **** -0.24
15507 H 60.629737168201956 29.40162073820275 61.05073072822117 H 0.0 **** 0.06
15508 H 59.258560142698315 29.989628720750517 62.02172250583888 H 0.0 **** 0.06
15509 H 59.07208814596896 29.75639803916468 60.266683900938915 H 0.0 **** 0.06
15510 H 60.080738546853354 31.086541158577376 60.88486470511285 H 0.0 **** 0.06
15511 C 128.66325740988447 21.672467565561277 181.0273638893893 C 0.0 **** -0.24
15512 H 128.85402266532532 21.078129605551283 180.13389672501697 H 0.0 **** 0.06
15513 H 127.72511949989058 22.215444834509043 180.90948461511613 H 0.0 **** 0.06
15514 H 129.47800139938096 22.382211091102732 181.1730997298912 H 0.0 **** 0.06
15515 H 128.5958069234793 21.01451353358604 181.89387441708354 H 0.0 **** 0.06
15516 C 174.88741372515233 109.95887384370329 123.00481328822897 C 0.0 **** -0.24
15517 H 175.2768076241855 109.35628543789574 122.18347585109254 H 0.0 **** 0.06
15518 H 175.5009498455239 110.85308573774606 123.12090850950605 H 0.0 **** 0.06
15519 H 174.91480542303108 109.37649434366875 123.92560065706002 H 0.0 **** 0.06
15520 H 173.85975035288786 110.24777578695648 122.78739843797925 H 0.0 **** 0.06
15521 C 186.79859307176898 135.67646188865936 218.97708886895302 C 0.0 **** -0.24
15522 H 186.59619581156062 134.87744052168102 219.69073638626887 H 0.0 **** 0.06
15523 H 185.9854432574274 136.4008523037036 219.0036682037934 H 0.0 **** 0.06
15524 H 186.87853489540856 135.25546805480658 217.97502147478073 H 0.0 **** 0.06
15525 H 187.73395677160153 136.16899359193587 219.24010184466576 H 0.0 **** 0.06
15526 C 140.8917412766991 137.90574622090745 1.7916942806390352 C 0.0 **** -0.24
15527 H 141.15517562706984 138.78255020587946 1.199872781132342 H 0.0 **** 0.06
15528 H 141.46280318702892 137.04648444678597 1.4404820027512812 H 0.0 **** 0.06
15529 H 139.82596497756785 137.70246026797744 1.6847631073337368 H 0.0 **** 0.06
15530 H 141.1232984697509 138.0933137586729 2.8403955053796324 H 0.0 **** 0.06
15531 C 187.99217370841984 184.69802786643314 207.65836655206974 C 0.0 **** -0.24
15532 H 187.01586302044478 185.16041970047465 207.80771116361876 H 0.0 **** 0.06
15533 H 188.77522634356518 185.43224216433393 207.85356011296676 H 0.0 **** 0.06
15534 H 188.0737347232597 184.34465685305346 206.6302671887795 H 0.0 **** 0.06
15535 H 188.1042090445537 183.85721226490682 208.34210536639492 H 0.0 **** 0.06
15536 C 30.812615443356464 110.28934021534502 11.547165675083491 C 0.0 **** -0.24
15537 H 30.458894432515535 109.60580143398349 12.319238050706147 H 0.0 **** 0.06
15538 H 30.365954761469283 110.01780522748265 10.590657151809793 H 0.0 **** 0.06
15539 H 31.898084354494387 110.22343485233185 11.472981478610109 H 0.0 **** 0.06
15540 H 30.52716367171925 111.30812689102808 11.805540491429682 H 0.0 **** 0.06
15541 C 118.13714713364314 101.95665192898562 40.25988013574997 C 0.0 **** -0.24
15542 H 118.3351479125117 102.88618450499408 39.72574770371878 H 0.0 **** 0.06
15543 H 118.21662354122083 101.11633279152846 39.56924287215443 H 0.0 **** 0.06
15544 H 117.13337773215062 101.9872587322593 40.68237601793808 H 0.0 **** 0.06
15545 H 118.86548048858577 101.83742293511168 41.063372239879726 H 0.0 **** 0.06
15546 C 100.69259781260317 220.8960603832592 185.96568069642436 C 0.0 **** -0.24
15547 H 101.59952079333675 220.9200623558532 185.36144135457414 H 0.0 **** 0.06
15548 H 100.90660614001942 220.41888550431838 186.9226703262832 H 0.0 **** 0.06
15549 H 99.92181906793024 220.33004597707958 185.44133786914546 H 0.0 **** 0.06
15550 H 100.34250281366297 221.91383510376878 186.13723732478718 H 0.0 **** 0.06
15551 C 128.35271954313603 43.81074325272675 185.0971751844411 C 0.0 **** -0.24
15552 H 128.3501806613131 44.88782339153765 184.932996965469 H 0.0 **** 0.06
15553 H 127.35620878761861 43.411374001834176 184.90313110468747 H 0.0 **** 0.06
15554 H 128.63381377529154 43.601304529033555 186.12898622187737 H 0.0 **** 0.06
15555 H 129.0693724040005 43.34243254288563 184.4230369805324 H 0.0 **** 0.06
15556 C 17.85581243851155 148.5304781194831 225.02815812693325 C 0.0 **** -0.24
15557 H 18.21739484579055 149.46444180808348 224.59948628578812 H 0.0 **** 0.06
15558 H 16.82871175309444 148.35628036188535 224.70688426219502 H 0.0 **** 0.06
15559 H 17.891442304323647 148.5912029463407 226.11638631430105 H 0.0 **** 0.06
15560 H 18.486034356445117 147.70759806206033 224.68945128706798 H 0.0 **** 0.06
15561 C 203.5608845929609 193.50550687989076 59.84977722211525 C 0.0 **** -0.24
15562 H 204.62015255792775 193.6975670272285 59.678918076890994 H 0.0 **** 0.06
15563 H 203.30317891185123 192.51902544223378 59.46368561482626 H 0.0 **** 0.06
15564 H 202.96758945169344 194.26244913636597 59.33618899122496 H 0.0 **** 0.06
15565 H 203.3528120255955 193.5429324752035 60.91891645401216 H 0.0 **** 0.06
15566 C 87.9716541664032 74.46249062984074 41.700377669273166 C 0.0 **** -0.24
15567 H 88.48616650346185 75.41047696724607 41.857197716140476 H 0.0 **** 0.06
15568 H 87.17673988968284 74.598346094172 40.96685046630033 H 0.0 **** 0.06
15569 H 87.54254251360015 74.12323803232331 42.643224122518546 H 0.0 **** 0.06
15570 H 88.68043001594157 73.71944478700689 41.33527462015327 H 0.0 **** 0.06
15571 C 149.33401033156943 243.6337354801591 167.71603054737136 C 0.0 **** -0.24
15572 H 149.79705597684224 244.61683192197134 167.80169668286683 H 0.0 **** 0.06
15573 H 149.67653633313523 243.14897117226815 166.8017373369838 H 0.0 **** 0.06
15574 H 148.25039654880737 243.74412273012427 167.6861409828341 H 0.0 **** 0.06
15575 H 149.6135904372605 243.02518257346705 168.57711759960324 H 0.0 **** 0.06
15576 C 172.04408434701458 48.64128627772678 121.86653729939175 C 0.0 **** -0.24
15577 H 171.88423155923348 47.707000986533586 122.40328922978549 H 0.0 **** 0.06
15578 H 171.32249441606882 49.38404966246301 122.20725873779506 H 0.0 **** 0.06
15579 H 171.91617769628402 48.473439971568695 120.79726227718746 H 0.0 **** 0.06
15580 H 173.05429908220478 49.00203787082302 122.05891983988383 H 0.0 **** 0.06
15581 C 96.70792058316195 144.47635487148742 59.530998520683056 C 0.0 **** -0.24
15582 H 96.41801867634885 143.9834785514805 60.45900519483976 H 0.0 **** 0.06
15583 H 97.5664761407971 143.96326738224894 59.099469683639484 H 0.0 **** 0.06
15584 H 96.96971959717965 145.51340403426371 59.73838190654743 H 0.0 **** 0.06
15585 H 95.87417626295527 144.44622129735635 58.828640380286885 H 0.0 **** 0.06
15586 C 53.77723165694161 178.0758262283102 202.91890139949385 C 0.0 **** -0.24
15587 H 53.45770925840455 177.83209413155882 203.9318262067692 H 0.0 **** 0.06
15588 H 53.821686593668744 177.1651695197434 202.32310221458079 H 0.0 **** 0.06
15589 H 54.763196572378945 178.5387778634895 202.95115867953 H 0.0 **** 0.06
15590 H 53.06445710694189 178.76933895488932 202.47156023447388 H 0.0 **** 0.06
15591 C 219.00645279008504 147.92476064609167 36.96877464151818 C 0.0 **** -0.24
15592 H 219.8802546317066 148.40862848094866 37.4042465937098 H 0.0 **** 0.06
15593 H 218.41305073491074 147.46524575606182 37.759579700407556 H 0.0 **** 0.06
15594 H 219.3292097626415 147.15806245858198 36.26464227324608 H 0.0 **** 0.06
15595 H 218.40250226472983 148.6676835455167 36.44643958493718 H 0.0 **** 0.06
15596 C 134.59856518976616 109.0058572071693 207.70558447158461 C 0.0 **** -0.24
15597 H 134.54354143061764 108.01525463671868 208.15741353880264 H 0.0 **** 0.06
15598 H 134.31234604356786 109.75733182735274 208.4421882154728 H 0.0 **** 0.06
15599 H 133.9211526402371 109.05539334575775 206.85348120839586 H 0.0 **** 0.06
15600 H 135.61926868152946 109.1952313960615 207.37058091147085 H 0.0 **** 0.06
15601 C 240.8691204047376 165.2316872933867 53.37842777943828 C 0.0 **** -0.24
15602 H 240.12039657959912 166.02428424240037 53.38782388300987 H 0.0 **** 0.06
15603 H 241.58863993331215 165.42229467155857 52.581048282905755 H 0.0 **** 0.06
15604 H 240.38017537079787 164.2727736638289 53.20626804243088 H 0.0 **** 0.06
15605 H 241.38657128582105 165.2085939812971 54.336551381069256 H 0.0 **** 0.06
15606 C 12.608808545377116 41.79292676389424 228.3272921599104 C 0.0 **** -0.24
15607 H 12.442944139189166 42.850718730353464 228.1195188744918 H 0.0 **** 0.06
15608 H 12.972911132404846 41.676426177391704 229.34827428162038 H 0.0 **** 0.06
15609 H 13.348138373437536 41.39873662817635 227.62998009732948 H 0.0 **** 0.06
15610 H 11.67148448699922 41.248960934831686 228.21034193144172 H 0.0 **** 0.06
15611 C 66.92002602982643 76.99700543402895 108.51360868768762 C 0.0 **** -0.24
15612 H 67.768530840193 77.68231182548749 108.51711873284498 H 0.0 **** 0.06
15613 H 66.65638438157578 76.75142210615661 107.48432811832129 H 0.0 **** 0.06
15614 H 66.07013150319042 77.46983553980431 109.00427205444174 H 0.0 **** 0.06
15615 H 67.18799819522218 76.08538930940153 109.04802756122518 H 0.0 **** 0.06
15616 C 185.35305580364513 248.95361173008632 105.03927905403802 C 0.0 **** -0.24
15617 H 185.75650825347364 248.77916529459193 104.04150847056496 H 0.0 **** 0.06
15618 H 185.47625607943803 250.00514400248468 105.30113808959842 H 0.0 **** 0.06
15619 H 185.885774622026 248.3345320758404 105.76034742836038 H 0.0 **** 0.06
15620 H 184.29428447528488 248.69837846794348 105.05272553497244 H 0.0 **** 0.06
15621 C 118.68194124364365 163.08552226614532 153.2644803786789 C 0.0 **** -0.24
15622 H 118.01533219426253 162.29566981161864 152.9158572861038 H 0.0 **** 0.06
15623 H 118.48617078494928 163.99943613601798 152.70303764639698 H 0.0 **** 0.06
15624 H 119.71700419424431 162.77982257190988 153.11193217627076 H 0.0 **** 0.06
15625 H 118.50823513300318 163.26508183430118 154.32472096567193 H 0.0 **** 0.06
15626 C 176.8207237191637 72.53389943883263 193.440027092934 C 0.0 **** -0.24
15627 H 176.40095672892798 73.53635944306771 193.53249437491422 H 0.0 **** 0.06
15628 H 176.22389112959678 71.8351385383873 194.02669278858107 H 0.0 **** 0.06
15629 H 177.84627447142685 72.53429073973521 193.80928455121884 H 0.0 **** 0.06
15630 H 176.81108447252652 72.2314085668024 192.39303954613996 H 0.0 **** 0.06
15631 C 162.9211745898435 41.90134011617769 33.17395984791574 C 0.0 **** -0.24
15632 H 163.79892830818332 41.74771814114689 33.801744260262666 H 0.0 **** 0.06
15633 H 162.77679253435073 42.96841521908013 33.00548992870159 H 0.0 **** 0.06
15634 H 162.04236109120862 41.48972333233799 33.67132896317682 H 0.0 **** 0.06
15635 H 163.06749625999797 41.39742278049967 32.218222507814886 H 0.0 **** 0.06
15636 C 118.04543169297563 242.97497094569096 220.11411694182732 C 0.0 **** -0.24
15637 H 118.3622763337248 243.1195913749383 219.08218867134485 H 0.0 **** 0.06
15638 H 117.25834315386058 243.68956693769215 220.3561805185449 H 0.0 **** 0.06
15639 H 118.89457870018705 243.1302439903689 220.779225357963 H 0.0 **** 0.06
15640 H 117.66582715492208 241.96049889091023 220.23958575272295 H 0.0 **** 0.06
15641 C 56.051899179081744 91.0045291603376 69.59724102870817 C 0.0 **** -0.24
15642 H 56.15569015843738 90.47163967870947 68.65194594027835 H 0.0 **** 0.06
15643 H 55.700275404273896 90.31606260145074 70.36530813644194 H 0.0 **** 0.06
15644 H 55.334866925187725 91.81680433900578 69.48028229577406 H 0.0 **** 0.06
15645 H 57.01904353116714 91.41297500923352 69.89079402631299 H 0.0 **** 0.06
15646 C 21.407702356850763 147.15441753865582 108.8965455275899 C 0.0 **** -0.24
15647 H 21.205760653332817 148.1097439538909 108.41261830885108 H 0.0 **** 0.06
15648 H 20.467360759820806 146.63404280519347 109.07806518367354 H 0.0 **** 0.06
15649 H 21.915860323823665 147.32740599140277 109.84515927619586 H 0.0 **** 0.06
15650 H 22.041048349571668 146.5469289767588 108.24990492278911 H 0.0 **** 0.06
15651 C 91.17357682930046 245.8422354414421 223.1586322151079 C 0.0 **** -0.24
15652 H 91.90247542789677 246.26811454902912 223.84819975233034 H 0.0 **** 0.06
15653 H 91.52197684524725 245.97787146251838 222.13352641946676 H 0.0 **** 0.06
15654 H 90.21595001141876 246.34538318788077 223.28660790498446 H 0.0 **** 0.06
15655 H 91.05689524384556 244.77884772222853 223.36434201525515 H 0.0 **** 0.06
15656 C 247.49894596712414 23.958836717625005 61.924255147331564 C 0.0 **** -0.24
15657 H 247.1901970426606 24.640978153324994 61.13339314106764 H 0.0 **** 0.06
15658 H 246.66330961380214 23.787691952897575 62.60326834954222 H 0.0 **** 0.06
15659 H 248.33127461824682 24.395505386566114 62.476637319160915 H 0.0 **** 0.06
15660 H 247.81162475790427 23.011099119905722 61.48586834409164 H 0.0 **** 0.06
15661 C 67.84307634769928 113.85972233207153 62.51597741518816 C 0.0 **** -0.24
15662 H 68.11586817342996 114.81104072455358 62.05960202027816 H 0.0 **** 0.06
15663 H 68.4047783428557 113.72643199932244 63.4410185674605 H 0.0 **** 0.06
15664 H 68.07514723713766 113.04684842942103 61.828707687498536 H 0.0 **** 0.06
15665 H 66.77491181010484 113.85619187932966 62.7362559645145 H 0.0 **** 0.06
15666 C 145.04668728591864 172.30390772061008 154.5545213872541 C 0.0 **** -0.24
15667 H 144.12999923310568 172.42115239934876 155.13184561247238 H 0.0 **** 0.06
15668 H 144.88772569596836 172.67385780835485 153.54157286167805 H 0.0 **** 0.06
15669 H 145.32018962338086 171.2488021715151 154.51865590592809 H 0.0 **** 0.06
15670 H 145.84845610358158 172.87002003270047 155.02838231602948 H 0.0 **** 0.06
15671 C 30.979102013155426 201.86224018791384 18.75035544280948 C 0.0 **** -0.24
15672 H 31.793747858694957 201.4940972014349 19.37456731698964 H 0.0 **** 0.06
15673 H 31.32022106686796 202.72880321311231 18.18449956221062 H 0.0 **** 0.06
15674 H 30.138628023238056 202.14736879830764 19.381735439051596 H 0.0 **** 0.06
15675 H 30.667244413639622 201.07733095076898 18.06122055216386 H 0.0 **** 0.06
15676 C 92.84592076678834 108.6994326074497 156.7865051542528 C 0.0 **** -0.24
15677 H 92.40846905922828 109.59023367268139 157.23890215790976 H 0.0 **** 0.06
15678 H 93.86959280594763 108.91357364726852 156.47904988566327 H 0.0 **** 0.06
15679 H 92.25818838488595 108.40807660693238 155.91570328111771 H 0.0 **** 0.06
15680 H 92.84609061595845 107.88700567813069 157.51328987216638 H 0.0 **** 0.06
15681 C 116.58014196529928 217.87631105845304 174.38420196190575 C 0.0 **** -0.24
15682 H 117.20019345291445 218.64731058118798 174.8409003871452 H 0.0 **** 0.06
15683 H 117.19797874768813 217.01329850090772 174.13492980095216 H 0.0 **** 0.06
15684 H 116.12077437693574 218.26920932647803 173.47689058004363 H 0.0 **** 0.06
15685 H 115.80072249223815 217.57621923247012 175.08483721175145 H 0.0 **** 0.06
15686 C 177.6444141910763 190.07045661829017 185.5884179011236 C 0.0 **** -0.24
15687 H 178.01286577070937 190.44385113801698 186.54459808727097 H 0.0 **** 0.06
15688 H 177.57385121548663 190.89667887891997 184.87991580082547 H 0.0 **** 0.06
15689 H 176.65999791960454 189.625192645046 185.72672969275982 H 0.0 **** 0.06
15690 H 178.3328219977838 189.31930452343278 185.2028977615185 H 0.0 **** 0.06
15691 C 150.51576668152944 93.53153902304751 26.447351862849047 C 0.0 **** -0.24
15692 H 149.72131030036923 92.82050646912944 26.221873860470737 H 0.0 **** 0.06
15693 H 150.16379156732714 94.54427420527696 26.24999801245623 H 0.0 **** 0.06
15694 H 151.3821229968064 93.31978695878945 25.81949090522606 H 0.0 **** 0.06
15695 H 150.79746939939582 93.44146443757052 27.496218256564717 H 0.0 **** 0.06
15696 C 76.9634545600889 53.14381053981356 115.76760771800497 C 0.0 **** -0.24
15697 H 75.91278336165598 52.903477477680156 115.60456593641734 H 0.0 **** 0.06
15698 H 77.08093748313627 53.61209177829721 116.74491832100068 H 0.0 **** 0.06
15699 H 77.30363595732874 53.82983007969085 114.99186718335588 H 0.0 **** 0.06
15700 H 77.55479886872507 52.22836876284637 115.72882832121218 H 0.0 **** 0.06
15701 C 218.63644280023868 146.13980765731213 44.484215867993626 C 0.0 **** -0.24
15702 H 217.93675789457825 146.38571546040063 43.68388095171929 H 0.0 **** 0.06
15703 H 219.28605719092712 146.99528615609262 44.67215006099768 H 0.0 **** 0.06
15704 H 219.23982217612007 145.2818124943863 44.18760467608668 H 0.0 **** 0.06
15705 H 218.08034221609512 145.89838565236914 45.39017344246284 H 0.0 **** 0.06
15706 C 26.520077284065735 110.73051600799462 202.41861978216963 C 0.0 **** -0.24
15707 H 25.667507930962813 110.86076033684043 203.08474775543584 H 0.0 **** 0.06
15708 H 26.211110558704547 110.92708875110242 201.3922766220653 H 0.0 **** 0.06
15709 H 26.890271616183952 109.7086153622817 202.49811689754273 H 0.0 **** 0.06
15710 H 27.31026044807919 111.42676936082785 202.70085091430263 H 0.0 **** 0.06
15711 C 49.94640733235316 75.63081925465642 240.69698421733045 C 0.0 **** -0.24
15712 H 49.98192449139776 74.69403645921474 241.2534679084464 H 0.0 **** 0.06
15713 H 50.23479643427902 76.45324001304706 241.35168444784296 H 0.0 **** 0.06
15714 H 48.93299950346568 75.79657104444013 240.33031748379153 H 0.0 **** 0.06
15715 H 50.63391476007578 75.57821502951757 239.85320765065893 H 0.0 **** 0.06
15716 C 31.1534812199628 164.9168653576768 244.203004823721 C 0.0 **** -0.24
15717 H 30.92650123169618 164.4893117043475 245.1795781833193 H 0.0 **** 0.06
15718 H 32.04110354217812 164.43430893250587 243.79277746282972 H 0.0 **** 0.06
15719 H 31.337439831963636 165.98619064582593 244.30965017889488 H 0.0 **** 0.06
15720 H 30.310615626874835 164.75812344743167 243.53134184734958 H 0.0 **** 0.06
15721 C 236.30905780649908 20.96460486355896 16.755998647785304 C 0.0 **** -0.24
15722 H 236.87684018430673 21.081377076541614 17.67910427072914 H 0.0 **** 0.06
15723 H 236.98158636087908 21.04513254812342 15.90152207556477 H 0.0 **** 0.06
15724 H 235.54963213887723 21.744411188771792 16.69569671527651 H 0.0 **** 0.06
15725 H 235.82601836448762 19.98694293935455 16.747896838525662 H 0.0 **** 0.06
15726 C 197.73081859466657 212.94637326005713 217.5588091896251 C 0.0 **** -0.24
15727 H 196.92888870100813 212.37277724566516 217.09455750958773 H 0.0 **** 0.06
15728 H 197.58073114369003 214.00796405039128 217.36025358531037 H 0.0 **** 0.06
15729 H 198.68954439168874 212.6314404052042 217.14613048002076 H 0.0 **** 0.06
15730 H 197.72416700731154 212.773873146918 218.63512050044952 H 0.0 **** 0.06
15731 C 6.95678976636637 143.30729858840124 42.23249867736821 C 0.0 **** -0.24
15732 H 6.197360712850923 142.52806637141626 42.17353914027569 H 0.0 **** 0.06
15733 H 6.7923404762172055 143.90851419268395 43.12794092496874 H 0.0 **** 0.06
15734 H 6.8932576017904665 143.94384677175617 41.35008287895339 H 0.0 **** 0.06
15735 H 7.944749702896942 142.84843035633088 42.2791964857345 H 0.0 **** 0.06
15736 C 14.471164996268655 30.08125180645655 189.5129897832793 C 0.0 **** -0.24
15737 H 14.865354921350814 30.28657902097339 188.51776287136045 H 0.0 **** 0.06
15738 H 13.52456857007597 29.546938743124628 189.42532943761077 H 0.0 **** 0.06
15739 H 14.309496995940421 31.020309679747214 190.0415447282714 H 0.0 **** 0.06
15740 H 15.1833161759686 29.470050467977188 190.06716230833575 H 0.0 **** 0.06
15741 C 214.11860313330038 40.960761975162 226.2158932433752 C 0.0 **** -0.24
15742 H 213.38346362484054 41.00359690533355 225.41267432283124 H 0.0 **** 0.06
15743 H 214.62683439197522 41.922111242518355 226.29507751788628 H 0.0 **** 0.06
15744 H 214.8481676052625 40.180192654711306 225.9991634798802 H 0.0 **** 0.06
15745 H 213.61545009162595 40.73632149486615 227.1569251588839 H 0.0 **** 0.06
15746 C 153.31660983774543 162.28259414039462 47.20654539896239 C 0.0 **** -0.24
15747 H 153.14784597660784 163.2928888894907 47.58160921378354 H 0.0 **** 0.06
15748 H 152.5404159668753 161.62022614306133 47.59049498559975 H 0.0 **** 0.06
15749 H 154.29283565454145 161.93081749924715 47.538667226533704 H 0.0 **** 0.06
15750 H 153.28270657648528 162.2893469724317 46.117315151279826 H 0.0 **** 0.06
15751 C 217.1669923518652 20.766035277735085 70.0041051477643 C 0.0 **** -0.24
15752 H 216.15843228474677 21.053308635236164 69.70701732076719 H 0.0 **** 0.06
15753 H 217.43963858680007 19.83434278507943 69.50908424695871 H 0.0 **** 0.06
15754 H 217.20225295925485 20.627666525188573 71.08486892871753 H 0.0 **** 0.06
15755 H 217.86847889923035 21.549338541371952 69.71525016744104 H 0.0 **** 0.06
15756 C 24.95621756925587 137.30338178752962 119.72878151220058 C 0.0 **** -0.24
15757 H 24.47742461650799 136.78151275977322 118.89925718411754 H 0.0 **** 0.06
15758 H 25.22429799877071 136.58500371344735 120.50302655616252 H 0.0 **** 0.06
15759 H 24.26742889795824 138.04065277595134 120.13933139936992 H 0.0 **** 0.06
15760 H 25.85547838918555 137.8053576050304 119.37152554348853 H 0.0 **** 0.06
15761 C 173.128570195353 152.95041482404136 225.04382026414976 C 0.0 **** -0.24
15762 H 172.4550460179819 153.65883048211793 224.5607032859698 H 0.0 **** 0.06
15763 H 174.13233899736443 153.067341498126 224.63466880176486 H 0.0 **** 0.06
15764 H 172.77787735718653 151.93370545556868 224.8614547513194 H 0.0 **** 0.06
15765 H 173.1479786623351 153.14109555854606 226.11634519516966 H 0.0 **** 0.06
15766 C 170.18924635882414 180.4389759121331 207.71791746060097 C 0.0 **** -0.24
15767 H 170.47723012601844 181.25617245360425 207.05589575370342 H 0.0 **** 0.06
15768 H 170.8140571349732 180.45901183858768 208.6112514585268 H 0.0 **** 0.06
15769 H 170.3233256573925 179.48893220431893 207.20087562288688 H 0.0 **** 0.06
15770 H 169.1431620733062 180.55392869798752 208.00275794035903 H 0.0 **** 0.06
15771 C 79.63619690064215 82.39605829544013 23.679478598662257 C 0.0 **** -0.24
15772 H 80.38012526807577 81.60933791100109 23.554006729784845 H 0.0 **** 0.06
15773 H 79.2028222547194 82.64298863839113 22.70990683834374 H 0.0 **** 0.06
15774 H 80.11205223093242 83.2820428153324 24.101039643010793 H 0.0 **** 0.06
15775 H 78.85158658790061 82.05003995138122 24.351307831486707 H 0.0 **** 0.06
15776 C 98.10565758415396 34.627167578490656 193.4846771245224 C 0.0 **** -0.24
15777 H 97.61177904554225 34.57729788289234 192.5146386899468 H 0.0 **** 0.06
15778 H 97.35508043299151 34.62431731940805 194.27551996104881 H 0.0 **** 0.06
15779 H 98.69389035241792 35.54357044767349 193.54620415358704 H 0.0 **** 0.06
15780 H 98.76220980934784 33.765858124415644 193.6028539287977 H 0.0 **** 0.06
15781 C 49.328793779278385 97.71252217631101 63.895834393612716 C 0.0 **** -0.24
15782 H 50.02294377598584 97.62366751117392 64.73149652587466 H 0.0 **** 0.06
15783 H 48.484450695806046 97.03982014100595 64.05297228827482 H 0.0 **** 0.06
15784 H 49.83897425989632 97.44536766145328 62.97040589223681 H 0.0 **** 0.06
15785 H 48.969025441074066 98.73866975982779 63.83000555868179 H 0.0 **** 0.06
15786 C 33.52478370258271 101.02813377348306 93.81957538134762 C 0.0 **** -0.24
15787 H 33.93572617050049 101.12330657718931 94.82438879162669 H 0.0 **** 0.06
15788 H 32.64316082415027 100.38586105054839 93.84704249378476 H 0.0 **** 0.06
15789 H 34.27370238466969 100.5895064297896 93.16073668892821 H 0.0 **** 0.06
15790 H 33.244863305980374 102.01288527895804 93.44723736329738 H 0.0 **** 0.06
15791 C 152.78176006752383 151.94000355489055 107.4832470978782 C 0.0 **** -0.24
15792 H 152.63325948302847 152.95152537075072 107.86059012055773 H 0.0 **** 0.06
15793 H 153.74089731137462 151.55953711142814 107.83415249722651 H 0.0 **** 0.06
15794 H 152.7720296960299 151.95310863118812 106.3937453136229 H 0.0 **** 0.06
15795 H 151.98019555036208 151.2953731363397 107.84658514502439 H 0.0 **** 0.06
15796 C 50.3700367695463 16.707947486657844 57.256951264456035 C 0.0 **** -0.24
15797 H 51.10281149159255 17.200702149295438 57.896607911616314 H 0.0 **** 0.06
15798 H 49.42646239923087 17.25201476192828 57.30089188771885 H 0.0 **** 0.06
15799 H 50.215956485857035 15.685530201436762 57.601774014467196 H 0.0 **** 0.06
15800 H 50.73433288642775 16.694621700463557 56.230651448132534 H 0.0 **** 0.06
15801 C 99.83500483952318 245.42727945162042 85.15664676364415 C 0.0 **** -0.24
15802 H 99.54289773444509 246.44137888289205 85.43024017792251 H 0.0 **** 0.06
15803 H 99.16097904557373 245.0506974742718 84.3862846235489 H 0.0 **** 0.06
15804 H 99.78011520197325 244.7842007400933 86.03389099886274 H 0.0 **** 0.06
15805 H 100.85586019229527 245.43525458886762 84.77470656569412 H 0.0 **** 0.06
15806 C 244.57786497778204 72.22434087657214 106.23775374938506 C 0.0 **** -0.24
15807 H 243.55052747631876 71.9229079249966 106.03295041915797 H 0.0 **** 0.06
15808 H 244.59140438488578 72.91925034898645 107.07736263327558 H 0.0 **** 0.06
15809 H 244.99629588338718 72.71141491535678 105.35588298463759 H 0.0 **** 0.06
15810 H 245.17224000460038 71.34487082230604 106.48345948931623 H 0.0 **** 0.06
15811 C 167.8024308625055 32.39410351881172 184.39432784658885 C 0.0 **** -0.24
15812 H 168.57844299748868 32.74795622457644 183.71559299564234 H 0.0 **** 0.06
15813 H 167.98814377430182 31.34978730069959 184.64488106987 H 0.0 **** 0.06
15814 H 166.82934697500497 32.48570613961405 183.9131425763046 H 0.0 **** 0.06
15815 H 167.8154653298926 32.99458328838077 185.30445076546738 H 0.0 **** 0.06
15816 C 19.0049178726035 196.84290705560068 17.296101184107314 C 0.0 **** -0.24
15817 H 18.670154629270712 195.80592921141593 17.32635168168879 H 0.0 **** 0.06
15818 H 19.178619123292904 197.19762928485403 18.312085724257457 H 0.0 **** 0.06
15819 H 18.240320803837108 197.45802336279462 16.821666973977514 H 0.0 **** 0.06
15820 H 19.93057693401329 196.91004636333804 16.72430035650555 H 0.0 **** 0.06
15821 C 207.84962495125708 217.9584510425978 170.76848255155565 C 0.0 **** -0.24
15822 H 207.97486499740057 219.02786429164868 170.93598119533604 H 0.0 **** 0.06
15823 H 208.82657783531394 217.49569714493063 170.62423459117588 H 0.0 **** 0.06
15824 H 207.2365645324242 217.79917003069562 169.8810012512969 H 0.0 **** 0.06
15825 H 207.35943102032982 217.51079271916166 171.6336048056595 H 0.0 **** 0.06
15826 C 85.13062791113978 35.55923523924608 205.63031810945643 C 0.0 **** -0.24
15827 H 84.55814678427782 36.19568307723446 204.9569749136402 H 0.0 **** 0.06
15828 H 84.77895417958581 34.53109761633101 205.54427053916044 H 0.0 **** 0.06
15829 H 85.00053022059538 35.9037591885817 206.65578307693193 H 0.0 **** 0.06
15830 H 86.18721086843351 35.60466921294454 205.36348896503398 H 0.0 **** 0.06
15831 C 146.09114790712962 205.7280756050566 36.9774197460483 C 0.0 **** -0.24
15832 H 145.36254168743585 205.34390482671796 37.692182903187046 H 0.0 **** 0.06
15833 H 145.83968112737844 206.7575067397971 36.72180955749914 H 0.0 **** 0.06
15834 H 146.07429552938044 205.11500885107236 36.076836205976775 H 0.0 **** 0.06
15835 H 147.08614625347857 205.69579134432274 37.421147798940126 H 0.0 **** 0.06
15836 C 77.55406223582327 169.0398073909654 36.205113767830085 C 0.0 **** -0.24
15837 H 77.65768722257681 168.75896583277094 37.25380936843665 H 0.0 **** 0.06
15838 H 76.84196265370409 169.86025808479883 36.117687164848334 H 0.0 **** 0.06
15839 H 77.19459054130661 168.18353884528364 35.63385038378638 H 0.0 **** 0.06
15840 H 78.5221997369018 169.35507957970015 35.81711790889739 H 0.0 **** 0.06
15841 C 130.17038802723607 161.5793407025924 210.02391317399128 C 0.0 **** -0.24
15842 H 130.205656445898 160.5224648038432 210.2895634123468 H 0.0 **** 0.06
15843 H 129.20171717166426 161.99192496929362 210.30404092155288 H 0.0 **** 0.06
15844 H 130.3161046450896 161.6883798228864 208.94879563840527 H 0.0 **** 0.06
15845 H 130.96026109337325 162.1123401572375 210.5528788503578 H 0.0 **** 0.06
15846 C 130.07998229715085 101.90152723584822 115.33254611916868 C 0.0 **** -0.24
15847 H 129.66775988851393 102.90342338565048 115.21543782139642 H 0.0 **** 0.06
15848 H 130.44185531284606 101.7748833444027 116.3535724791573 H 0.0 **** 0.06
15849 H 130.90581659282884 101.76465155136822 114.63434820077194 H 0.0 **** 0.06
15850 H 129.30455939618906 101.1640583063504 115.12790872967781 H 0.0 **** 0.06
15851 C 234.6609337393216 55.26344506556603 87.38161849322736 C 0.0 **** -0.24
15852 H 235.2402141499154 55.88285669612998 88.06700087954638 H 0.0 **** 0.06
15853 H 235.32058488201142 54.54134899110895 86.89912267921022 H 0.0 **** 0.06
15854 H 234.19760658303755 55.89621563907721 86.62539107678168 H 0.0 **** 0.06
15855 H 233.8870573202649 54.73335284585556 87.93741171229729 H 0.0 **** 0.06
15856 C 21.839688962240615 73.77596958288387 179.65798616272448 C 0.0 **** -0.24
15857 H 20.857752079354697 73.6776791998418 179.19599966963614 H 0.0 **** 0.06
15858 H 21.78043337798357 73.47343511252404 180.70331828012675 H 0.0 **** 0.06
15859 H 22.16626511523853 74.81375267081572 179.59797916801443 H 0.0 **** 0.06
15860 H 22.55257048417107 73.14014778697398 179.13381143987047 H 0.0 **** 0.06
15861 C 205.4613827216688 225.6507703853654 221.17444038553919 C 0.0 **** -0.24
15862 H 205.43318530949642 226.67848143634086 220.81131578167918 H 0.0 **** 0.06
15863 H 206.44028996104376 225.21950579099166 220.96792398507995 H 0.0 **** 0.06
15864 H 204.69191998024982 225.0670623988655 220.6695546151178 H 0.0 **** 0.06
15865 H 205.27829889418416 225.6403936719085 222.24874676719406 H 0.0 **** 0.06
15866 C 164.12624696534812 129.88306133616766 92.74186513270624 C 0.0 **** -0.24
15867 H 165.13141194157998 129.48799257622477 92.59274565014925 H 0.0 **** 0.06
15868 H 163.56144040594592 129.79568086514954 91.81371925368924 H 0.0 **** 0.06
15869 H 164.1884846350825 130.93142082949353 93.03233614073082 H 0.0 **** 0.06
15870 H 163.62677020817165 129.3162634717443 93.52708402653047 H 0.0 **** 0.06
15871 C 238.82192229454876 56.548644345967716 132.2500608314794 C 0.0 **** -0.24
15872 H 238.45597682842117 56.76909281514341 133.25347498799414 H 0.0 **** 0.06
15873 H 239.50438038963324 57.33681692257446 131.93113683960706 H 0.0 **** 0.06
15874 H 237.97873674512567 56.49574916636803 131.56054084704414 H 0.0 **** 0.06
15875 H 239.3468969253276 55.59291835613351 132.25654525115175 H 0.0 **** 0.06
15876 C 77.60327306720771 132.3733026890954 47.58277927978139 C 0.0 **** -0.24
15877 H 77.64580187154681 133.4600806315655 47.51286811830029 H 0.0 **** 0.06
15878 H 76.56678362020781 132.0581115455042 47.70412482366447 H 0.0 **** 0.06
15879 H 78.18740477587889 132.0422896800196 48.442136082980056 H 0.0 **** 0.06
15880 H 78.01299905009878 131.93435951891672 46.67351470133379 H 0.0 **** 0.06
15881 C 191.86839866658806 161.97578781880097 222.7852880410988 C 0.0 **** -0.24
15882 H 192.17288103291736 162.49928356740267 221.87914718208714 H 0.0 **** 0.06
15883 H 190.81921476158496 161.69089564357458 222.70462730419678 H 0.0 **** 0.06
15884 H 192.00307012801224 162.63190677285166 223.64504444951552 H 0.0 **** 0.06
15885 H 192.48009608333672 161.0820283741181 222.91119634719823 H 0.0 **** 0.06
15886 C 228.47865486145741 219.44422640144623 113.524349512888 C 0.0 **** -0.24
15887 H 228.643865300374 218.3971484348584 113.77459897678006 H 0.0 **** 0.06
15888 H 228.9835261513744 220.0770415452186 114.25492021654094 H 0.0 **** 0.06
15889 H 227.4092767039457 219.65703349134367 113.53672192622338 H 0.0 **** 0.06
15890 H 228.87827139497784 219.6477459652666 112.53035806807438 H 0.0 **** 0.06
15891 C 133.70184495308163 41.85788123119403 0.4189706925033647 C 0.0 **** -0.24
15892 H 133.18164511479483 42.51590018721933 -0.2772015220183164 H 0.0 **** 0.06
15893 H 134.76974961865972 41.86586246277338 0.19770047918828482 H 0.0 **** 0.06
15894 H 133.31606423333974 40.84346986803888 0.318828845517686 H 0.0 **** 0.06
15895 H 133.53939371166396 42.20862940167541 1.4386191092667957 H 0.0 **** 0.06
15896 C 91.68361433948024 235.2620966108341 155.77632754569638 C 0.0 **** -0.24
15897 H 91.67564304936957 236.29314272145794 155.420573472324 H 0.0 **** 0.06
15898 H 91.15301365717812 235.20281809979613 156.72665409157173 H 0.0 **** 0.06
15899 H 92.71379596645795 234.93338551833202 155.91290133871775 H 0.0 **** 0.06
15900 H 91.19239503856238 234.62172176927595 155.04437111232588 H 0.0 **** 0.06
15901 C 118.26425351700357 53.55628258431253 0.3813878697635431 C 0.0 **** -0.24
15902 H 117.42306587537607 53.244790130294064 -0.23698771279322273 H 0.0 **** 0.06
15903 H 119.19462315107833 53.21089297238467 -0.0697882957401248 H 0.0 **** 0.06
15904 H 118.16143252150235 53.12646416786279 1.377376089114989 H 0.0 **** 0.06
15905 H 118.27692567446371 54.64441595178104 0.45506130379185095 H 0.0 **** 0.06
15906 C 242.2834537875731 101.68516802426484 27.383786152112037 C 0.0 **** -0.24
15907 H 242.37183680617352 100.61294382312474 27.55975568602966 H 0.0 **** 0.06
15908 H 242.84259095600126 102.22539232950902 28.147341579064886 H 0.0 **** 0.06
15909 H 241.23391371686182 101.97557121923205 27.427054961349626 H 0.0 **** 0.06
15910 H 242.68671815942474 101.92546097816634 26.399668923816563 H 0.0 **** 0.06
15911 C 84.89644194532713 26.946017624744144 75.27707185515996 C 0.0 **** -0.24
15912 H 84.99927851817665 26.295760881290988 76.1451515547954 H 0.0 **** 0.06
15913 H 83.8576257298767 26.945312314101017 74.94521502840797 H 0.0 **** 0.06
15914 H 85.53529050154413 26.582016961183484 74.47263565216718 H 0.0 **** 0.06
15915 H 85.1921014352697 27.960228632784464 75.54580418987322 H 0.0 **** 0.06
15916 C 81.51875628819607 241.96299114824484 161.6554020028842 C 0.0 **** -0.24
15917 H 80.45327960206598 242.18883102847911 161.63017628261227 H 0.0 **** 0.06
15918 H 82.07799489945637 242.87368301715125 161.8690209653191 H 0.0 **** 0.06
15919 H 81.82887794590687 241.56290974569043 160.6907170876507 H 0.0 **** 0.06
15920 H 81.71460589604703 241.22511014198437 162.4341189807993 H 0.0 **** 0.06
15921 C 70.70079872097057 35.83330806790846 50.34867856214713 C 0.0 **** -0.24
15922 H 71.08072312710985 35.67677607551033 51.35839572683636 H 0.0 **** 0.06
15923 H 71.32318240236987 36.56574779690939 49.83545428656009 H 0.0 **** 0.06
15924 H 69.67527033255186 36.19833726555137 50.40020305795689 H 0.0 **** 0.06
15925 H 70.72408431158635 34.889326204834816 49.802591014604445 H 0.0 **** 0.06
15926 C 90.61382142708158 94.59299611962808 80.08807947934127 C 0.0 **** -0.24
15927 H 89.55578512893825 94.85244230783027 80.11719015442657 H 0.0 **** 0.06
15928 H 90.72819598974812 93.51859312235362 80.23023862726961 H 0.0 **** 0.06
15929 H 91.1399709068269 95.12335126749736 80.88138881672967 H 0.0 **** 0.06
15930 H 91.03081911290818 94.87810635062823 79.12228516707677 H 0.0 **** 0.06
15931 C 31.108755843989243 193.92109095750348 74.00391533381836 C 0.0 **** -0.24
15932 H 31.631631863020118 193.11162173116833 73.4948683751395 H 0.0 **** 0.06
15933 H 31.833550041894085 194.64852495203377 74.36802893318142 H 0.0 **** 0.06
15934 H 30.545222461785997 193.51621566222772 74.84488067047053 H 0.0 **** 0.06
15935 H 30.423959934350293 194.4058647857758 73.30789703704622 H 0.0 **** 0.06
15936 C 55.96313868505857 115.91585449102686 205.03109204543648 C 0.0 **** -0.24
15937 H 55.968787856838816 116.90702854206674 204.57628146044547 H 0.0 **** 0.06
15938 H 55.18629663779913 115.3076003786839 204.56679909216308 H 0.0 **** 0.06
15939 H 55.763588220722795 116.00728057202798 206.09834011600736 H 0.0 **** 0.06
15940 H 56.933381093489885 115.44227636623663 204.88187074730845 H 0.0 **** 0.06
15941 C 99.3053316574609 17.360305750520524 155.06141446038026 C 0.0 **** -0.24
15942 H 99.4171770975654 18.430275448377685 154.8839573687028 H 0.0 **** 0.06
15943 H 100.04986930345777 16.81721830074612 154.4793575178626 H 0.0 **** 0.06
15944 H 98.3071891272711 17.04474779893556 154.759407461038 H 0.0 **** 0.06
15945 H 99.44814629800433 17.151362652888295 156.1214466890139 H 0.0 **** 0.06
15946 C 82.97306310842592 211.31192267145087 75.9480959982927 C 0.0 **** -0.24
15947 H 82.03569471208729 211.32737155359908 75.39217119298226 H 0.0 **** 0.06
15948 H 83.06101659167362 210.3670247390295 76.4851208203709 H 0.0 **** 0.06
15949 H 82.98625377798632 212.13682975011633 76.6603851852627 H 0.0 **** 0.06
15950 H 83.80712206084385 211.41607585320517 75.25510730115218 H 0.0 **** 0.06
15951 C 206.93728230450648 159.71606944706863 71.70047826215153 C 0.0 **** -0.24
15952 H 206.14665877618842 159.0732402631207 71.31290936518249 H 0.0 **** 0.06
15953 H 206.52177366008743 160.3956367967629 72.44324695685066 H 0.0 **** 0.06
15954 H 207.36994610055018 160.2917441576959 70.88143720756801 H 0.0 **** 0.06
15955 H 207.71115619173227 159.10221501232755 72.16089058228846 H 0.0 **** 0.06
15956 C 41.692156725688676 78.60898487777351 72.44469648290439 C 0.0 **** -0.24
15957 H 41.838880367025 78.03103604590876 73.35708833347434 H 0.0 **** 0.06
15958 H 41.567377250429274 79.6623613393225 72.69812042504995 H 0.0 **** 0.06
15959 H 40.800670041930914 78.2520836876416 71.92840043612057 H 0.0 **** 0.06
15960 H 42.55997021171733 78.4914924099566 71.79657008202011 H 0.0 **** 0.06
15961 C 219.3540991781526 217.44109537919635 56.52826386211996 C 0.0 **** -0.24
15962 H 220.13431077456877 218.0050989896196 56.0168859552939 H 0.0 **** 0.06
15963 H 219.60245468578398 217.3529653251475 57.58552314730113 H 0.0 **** 0.06
15964 H 219.2784986914525 216.4463194559427 56.08824340138301 H 0.0 **** 0.06
15965 H 218.40128962882588 217.95947646390695 56.42109771884594 H 0.0 **** 0.06
15966 C 231.99510955444023 28.41237466924133 49.74794628290928 C 0.0 **** -0.24
15967 H 231.85348383146064 28.171268739168084 48.69401902621439 H 0.0 **** 0.06
15968 H 232.54342183604822 27.605355852089986 50.234453060498836 H 0.0 **** 0.06
15969 H 231.02295918729888 28.531447822831836 50.2267811407155 H 0.0 **** 0.06
15970 H 232.55898219459513 29.33999204114147 49.83589062426793 H 0.0 **** 0.06
15971 C 162.92749769251057 80.00776018662458 8.521881341252126 C 0.0 **** -0.24
15972 H 163.9220429589114 80.39660707696595 8.30407552249494 H 0.0 **** 0.06
15973 H 162.78940313720707 79.05546005198136 8.010033790938365 H 0.0 **** 0.06
15974 H 162.17604532524638 80.71851694201388 8.174939322871722 H 0.0 **** 0.06
15975 H 162.82129370460112 79.86205617326232 9.597066733025557 H 0.0 **** 0.06
15976 C 106.64388929310658 186.09745193493615 141.92599402393287 C 0.0 **** -0.24
15977 H 107.56958764682645 186.4101121969756 142.4085535353031 H 0.0 **** 0.06
15978 H 106.41173814670552 186.77985798144044 141.10770287013003 H 0.0 **** 0.06
15979 H 105.83230156762602 186.11250173636466 142.65273773818453 H 0.0 **** 0.06
15980 H 106.76201449686798 185.08647714460727 141.53447647597014 H 0.0 **** 0.06
15981 C 65.32343777501697 98.03067569309289 30.537720313084293 C 0.0 **** -0.24
15982 H 65.61031570935941 98.531160478425 31.46242220943057 H 0.0 **** 0.06
15983 H 65.37312355380234 96.95040333202775 30.67879309780622 H 0.0 **** 0.06
15984 H 66.00457657895811 98.32540511658661 29.73974408494641 H 0.0 **** 0.06
15985 H 64.30591828991385 98.31768817534734 30.27099290738866 H 0.0 **** 0.06
15986 C 45.6016615080796 83.52138822533342 160.58287138701218 C 0.0 **** -0.24
15987 H 46.179357242422896 84.43686138442726 160.70838273085008 H 0.0 **** 0.06
15988 H 45.55055278782898 82.99110513019568 161.53402348351096 H 0.0 **** 0.06
15989 H 46.08492466271275 82.88726916703186 159.83844521266352 H 0.0 **** 0.06
15990 H 44.59415356746105 83.76985358118176 160.2500872524269 H 0.0 **** 0.06
15991 C 66.13142299927179 77.52312707838772 121.43592850448994 C 0.0 **** -0.24
15992 H 67.1947120589162 77.60638711284929 121.66403533348932 H 0.0 **** 0.06
15993 H 65.92223217135677 76.5287859451949 121.04004532969856 H 0.0 **** 0.06
15994 H 65.859998377836 78.27398311809199 120.69437982486804 H 0.0 **** 0.06
15995 H 65.55203740249729 77.68335346745309 122.3448187052922 H 0.0 **** 0.06
15996 C 39.14214898993731 203.81137210198523 41.35516792912787 C 0.0 **** -0.24
15997 H 40.01966669927066 203.46697622458822 41.90216949776985 H 0.0 **** 0.06
15998 H 39.37149906789415 203.8518650712827 40.289823646318524 H 0.0 **** 0.06
15999 H 38.862472329368245 204.80571156342813 41.70500014860838 H 0.0 **** 0.06
16000 H 38.31575010691034 203.12156772723552 41.52269215831788 H 0.0 **** 0.06
16001 C 50.01918600512117 12.379592363530278 149.5662875174858 C 0.0 **** -0.24
16002 H 49.48229787371241 11.756021625455219 148.85175044102243 H 0.0 **** 0.06
16003 H 50.84578867143641 11.810986867286942 149.99408817818392 H 0.0 **** 0.06
16004 H 49.34004744778727 12.688201608194206 150.36074816381537 H 0.0 **** 0.06
16005 H 50.408796665752476 13.261218158660185 149.05746922171016 H 0.0 **** 0.06
16006 C 20.987916784074173 182.77867996565348 20.318733946673518 C 0.0 **** -0.24
16007 H 21.296309335310966 182.48416781062895 19.316544256205617 H 0.0 **** 0.06
16008 H 21.405501008105603 182.08176394500887 21.04679168124457 H 0.0 **** 0.06
16009 H 19.900079070513456 182.7632549537409 20.38431401476973 H 0.0 **** 0.06
16010 H 21.350112765384367 183.78498472149278 20.529649523799407 H 0.0 **** 0.06
16011 C 204.29841783168266 41.49749342488937 219.17773180393323 C 0.0 **** -0.24
16012 H 205.06905199563525 42.24592143736879 218.99244265966627 H 0.0 **** 0.06
16013 H 203.41372358990563 41.73367559205336 218.5855902151024 H 0.0 **** 0.06
16014 H 204.03889983635185 41.498278270193055 220.2362224084088 H 0.0 **** 0.06
16015 H 204.67286032084758 40.51375992837127 218.89545039380067 H 0.0 **** 0.06
16016 C 229.74568418384305 219.63832663267897 105.60680809530984 C 0.0 **** -0.24
16017 H 229.9089523486954 219.1568221862284 106.57040579816137 H 0.0 **** 0.06
16018 H 228.8606645866815 219.21269624505805 105.13352629988043 H 0.0 **** 0.06
16019 H 230.6136058362699 219.4755766807055 104.96716910702659 H 0.0 **** 0.06
16020 H 229.59994791487114 220.7078846550064 105.75482544597247 H 0.0 **** 0.06
16021 C 3.6514641609695246 84.56500991689975 30.624810389071996 C 0.0 **** -0.24
16022 H 4.707663066314794 84.42877473231013 30.860013341584676 H 0.0 **** 0.06
16023 H 3.3241386961262123 85.54215300373892 30.981775386441797 H 0.0 **** 0.06
16024 H 3.0672053114744813 83.78484500539835 31.11342156687155 H 0.0 **** 0.06
16025 H 3.5088463461567727 84.50545367055827 29.546177099202595 H 0.0 **** 0.06
16026 C 165.59496964124926 14.1656381571716 55.73523490610299 C 0.0 **** -0.24
16027 H 166.49247579507042 13.561708826309001 55.59743197695067 H 0.0 **** 0.06
16028 H 164.71489848595482 13.525083787872802 55.6776464426583 H 0.0 **** 0.06
16029 H 165.54541167032627 14.924921931831605 54.95448607943976 H 0.0 **** 0.06
16030 H 165.62975000935154 14.64944593671386 56.711358836479775 H 0.0 **** 0.06
16031 C 144.38852309850134 222.38850762407105 229.54310612305142 C 0.0 **** -0.24
16032 H 144.9290984692011 223.3090095060208 229.32270847526763 H 0.0 **** 0.06
16033 H 144.91807117526386 221.54326657278938 229.1035438767791 H 0.0 **** 0.06
16034 H 143.38439338278675 222.44809726178607 229.12346203998197 H 0.0 **** 0.06
16035 H 144.3246160931604 222.25614719507274 230.62337747104664 H 0.0 **** 0.06
16036 C 38.28460894330493 246.52439920419533 193.58727106780083 C 0.0 **** -0.24
16037 H 37.73646214833225 247.46552482808804 193.53827897719822 H 0.0 **** 0.06
16038 H 39.00045374894066 246.56406220171428 194.40892771135532 H 0.0 **** 0.06
16039 H 38.81665629341363 246.36505134418377 192.64923085087958 H 0.0 **** 0.06
16040 H 37.58524800682255 245.70499330896715 193.75349028752726 H 0.0 **** 0.06
16041 C 156.29361004972637 190.91674512152605 116.04918964015101 C 0.0 **** -0.24
16042 H 155.68831540622645 190.01115245289787 116.08869763335727 H 0.0 **** 0.06
16043 H 156.9855791073561 190.92787241992062 116.89188269521406 H 0.0 **** 0.06
16044 H 155.64463626816803 191.79014388307158 116.10108558831925 H 0.0 **** 0.06
16045 H 156.8560897924041 190.93646874483719 115.115497457895 H 0.0 **** 0.06
16046 C 40.24119514451854 103.29262519252043 177.5480125861347 C 0.0 **** -0.24
16047 H 40.40544959768299 102.6287355654101 178.39706830383972 H 0.0 **** 0.06
16048 H 39.17538629165074 103.33605435176872 177.32253759441824 H 0.0 **** 0.06
16049 H 40.78075320081466 102.9129685184044 176.68007567174828 H 0.0 **** 0.06
16050 H 40.602027169191075 104.29194243297178 177.79243614593724 H 0.0 **** 0.06
16051 C 21.767584611405894 200.5950232809502 191.9178416437271 C 0.0 **** -0.24
16052 H 21.92805410777872 199.6472844107577 192.43273110093102 H 0.0 **** 0.06
16053 H 22.729138461060316 201.02698841548343 191.642907337344 H 0.0 **** 0.06
16054 H 21.234534933221724 201.28082662635288 192.57732658942223 H 0.0 **** 0.06
16055 H 21.175299068595365 200.42325497610136 191.01849406669675 H 0.0 **** 0.06
16056 C 221.33321519394923 151.9671326264199 38.680645304025646 C 0.0 **** -0.24
16057 H 220.50138364127724 152.25002720007106 39.324646455947885 H 0.0 **** 0.06
16058 H 221.50482085043456 152.7512536627032 37.943023266067854 H 0.0 **** 0.06
16059 H 221.09634959794602 151.03345941409557 38.17006074158273 H 0.0 **** 0.06
16060 H 222.2319090457429 151.83358900667506 39.284224667393815 H 0.0 **** 0.06
16061 C 108.17933474558072 137.10264130598168 191.80326926565024 C 0.0 **** -0.24
16062 H 107.9377125449976 136.14622314623793 191.33913072035782 H 0.0 **** 0.06
16063 H 107.397310241508 137.36761098477095 192.51554261427611 H 0.0 **** 0.06
16064 H 108.24820757573767 137.87262349887382 191.03472224257217 H 0.0 **** 0.06
16065 H 109.13358002055469 137.02246359426144 192.32381518831102 H 0.0 **** 0.06
16066 C 163.2761671997974 154.7746794937613 132.0157578709624 C 0.0 **** -0.24
16067 H 163.70209358872475 154.2276432189738 132.85759550762833 H 0.0 **** 0.06
16068 H 164.059705168175 154.98862810976325 131.2886417772015 H 0.0 **** 0.06
16069 H 162.84481958875418 155.70962248940975 132.3712257135866 H 0.0 **** 0.06
16070 H 162.49940408687468 154.17046684252603 131.54635003749976 H 0.0 **** 0.06
16071 C 130.25528927012235 221.7817445552938 227.31023303651443 C 0.0 **** -0.24
16072 H 130.26466048988246 221.97304566089636 226.23651023684715 H 0.0 **** 0.06
16073 H 131.2181404945887 221.3730681142746 227.61457107504356 H 0.0 **** 0.06
16074 H 129.46605815964662 221.0666906064227 227.54363329139284 H 0.0 **** 0.06
16075 H 130.06963307754663 222.7142395810064 227.8430720108562 H 0.0 **** 0.06
16076 C 84.12949123761211 63.571999604610596 130.83333907281448 C 0.0 **** -0.24
16077 H 84.23309356370865 62.51618062658591 130.5813303003099 H 0.0 **** 0.06
16078 H 85.0679065152965 63.93808366115286 131.25025849274243 H 0.0 **** 0.06
16079 H 83.33322497315154 63.693809453102574 131.56701063195084 H 0.0 **** 0.06
16080 H 83.88581952682068 64.13787176356536 129.93407806084815 H 0.0 **** 0.06
16081 C 171.22312102565124 81.72422700862847 225.01391646008682 C 0.0 **** -0.24
16082 H 170.17671274638158 81.45495584343291 225.15378536793446 H 0.0 **** 0.06
16083 H 171.51526213902721 82.45386403742728 225.76928256139408 H 0.0 **** 0.06
16084 H 171.35844675030194 82.1545083947251 224.0215191363922 H 0.0 **** 0.06
16085 H 171.84317491322506 80.83225221909694 225.11109019256705 H 0.0 **** 0.06
16086 C 138.05582497388278 10.47231281155939 89.67433650479398 C 0.0 **** -0.24
16087 H 137.4457456698428 10.921985091523624 90.45830312478506 H 0.0 **** 0.06
16088 H 139.04889088711957 10.921213250141449 89.68569672114131 H 0.0 **** 0.06
16089 H 137.58759112874773 10.646268823602185 88.70554037511747 H 0.0 **** 0.06
16090 H 138.13891460118907 9.399510162988037 89.85085043772577 H 0.0 **** 0.06
16091 C 47.965954091112934 56.99388997333756 166.75927400812864 C 0.0 **** -0.24
16092 H 48.543227767100944 57.880719028519934 166.49630650757084 H 0.0 **** 0.06
16093 H 46.94173993000149 57.28300074152426 166.99174308289858 H 0.0 **** 0.06
16094 H 48.41540121972102 56.51380710124863 167.62909024901765 H 0.0 **** 0.06
16095 H 47.96689434124059 56.298370409052325 165.92002838229834 H 0.0 **** 0.06
16096 C 182.82587920425976 196.4680864800836 247.0893971769473 C 0.0 **** -0.24
16097 H 182.07817818441686 195.90080540259424 246.53472615984668 H 0.0 **** 0.06
16098 H 182.851811147628 196.12093617399884 248.12220633946976 H 0.0 **** 0.06
16099 H 182.5686109452555 197.52690362092923 247.06666237445722 H 0.0 **** 0.06
16100 H 183.80490133964287 196.3209653493483 246.6318683651681 H 0.0 **** 0.06
16101 C 204.36608530004938 35.36903195442525 72.55881780578065 C 0.0 **** -0.24
16102 H 205.31828586120804 35.55866169359851 72.06385496087498 H 0.0 **** 0.06
16103 H 203.89462538250896 36.318136985450565 72.81588154408755 H 0.0 **** 0.06
16104 H 204.53716728472028 34.79169239393963 73.46659395732078 H 0.0 **** 0.06
16105 H 203.7138816664457 34.80855026624245 71.88879820172244 H 0.0 **** 0.06
16106 C 16.509914539922164 243.19102407145505 1.833960911910438 C 0.0 **** -0.24
16107 H 16.516866020203935 243.76880405639622 2.7579087078760836 H 0.0 **** 0.06
16108 H 15.738176090044448 243.578268532638 1.1689901925278576 H 0.0 **** 0.06
16109 H 16.302912206335776 242.14492057256246 2.0603479163322476 H 0.0 **** 0.06
16110 H 17.482409172104866 243.27139609607673 1.3485455284829015 H 0.0 **** 0.06
16111 C 49.098132732024595 180.53337505346815 222.39364178050164 C 0.0 **** -0.24
16112 H 48.420280832418285 180.89024291712224 223.16935867714696 H 0.0 **** 0.06
16113 H 49.713290334689844 179.72696209358676 222.79308618560285 H 0.0 **** 0.06
16114 H 49.7387361277475 181.35210720087093 222.06606502878097 H 0.0 **** 0.06
16115 H 48.518689554435554 180.1639366888084 221.54766455509565 H 0.0 **** 0.06
16116 C 199.13445184718094 68.73916659005337 154.22602769735812 C 0.0 **** -0.24
16117 H 199.07746739643986 68.4599838361386 153.17332387208705 H 0.0 **** 0.06
16118 H 198.32217794679602 69.42600424473409 154.4623615903307 H 0.0 **** 0.06
16119 H 200.09030055232463 69.22441422241289 154.4220035926413 H 0.0 **** 0.06
16120 H 199.0473979785567 67.84571340152036 154.8435093435223 H 0.0 **** 0.06
16121 C 30.05231913953483 184.474605845283 26.062352373714106 C 0.0 **** -0.24
16122 H 28.978583894318717 184.43125567969258 25.877891097855567 H 0.0 **** 0.06
16123 H 30.509200173178996 185.19174446798644 25.380363747483358 H 0.0 **** 0.06
16124 H 30.487562806085563 183.48925195018052 25.90028384868448 H 0.0 **** 0.06
16125 H 30.230623182623688 184.78632162980458 27.092300684562204 H 0.0 **** 0.06
16126 C 210.7745820253604 94.51100187355263 100.45015836774559 C 0.0 **** -0.24
16127 H 211.17234472761828 94.32190374915345 101.44702259986929 H 0.0 **** 0.06
16128 H 209.8004540890794 94.03317063900988 100.3504706795556 H 0.0 **** 0.06
16129 H 211.4575393178727 94.10411201449173 99.70392545801545 H 0.0 **** 0.06
16130 H 210.6709066414126 95.58540173438774 100.29960964006145 H 0.0 **** 0.06
16131 C 79.98463929016569 212.0795161285756 77.95801703215727 C 0.0 **** -0.24
16132 H 78.99707309346476 212.22597130993034 78.39513309587392 H 0.0 **** 0.06
16133 H 80.60836692778179 212.9473219794063 78.17165552377355 H 0.0 **** 0.06
16134 H 79.88865121140708 211.95776956460662 76.87886197522238 H 0.0 **** 0.06
16135 H 80.44303309396665 211.18735686450896 78.38551152833347 H 0.0 **** 0.06
16136 C 122.23608865386677 55.94600903974458 16.98543130097474 C 0.0 **** -0.24
16137 H 122.1982222603406 54.85831678225691 16.918086906558216 H 0.0 **** 0.06
16138 H 121.26620972500044 56.360895929162126 16.71159138736172 H 0.0 **** 0.06
16139 H 122.999092343782 56.32426801180986 16.304666221042027 H 0.0 **** 0.06
16140 H 122.48219106447303 56.238623766681854 18.005532169222505 H 0.0 **** 0.06
16141 C 182.85845799646165 44.926425147124775 157.98561738993038 C 0.0 **** -0.24
16142 H 183.09544660568008 45.98105843428269 157.84628471212358 H 0.0 **** 0.06
16143 H 183.7823737520984 44.35040586917158 158.0372510687729 H 0.0 **** 0.06
16144 H 182.25697926206965 44.57535920411824 157.14678629237133 H 0.0 **** 0.06
16145 H 182.29903236599836 44.79887708092669 158.91214748645373 H 0.0 **** 0.06
16146 C 148.401529055641 222.32277046339456 36.896338490045 C 0.0 **** -0.24
16147 H 148.36824795560804 222.27618676397233 37.984163789509864 H 0.0 **** 0.06
16148 H 149.35137850780262 221.92064562693454 36.543856995837785 H 0.0 **** 0.06
16149 H 148.304707871587 223.36032691899769 36.57474738219332 H 0.0 **** 0.06
16150 H 147.58207742571847 221.73603943478727 36.481928922863716 H 0.0 **** 0.06
16151 C 113.65080508839654 85.87245383174582 111.24270997971584 C 0.0 **** -0.24
16152 H 114.37188531958017 85.05633785759767 111.28606414720127 H 0.0 **** 0.06
16153 H 113.50084571874513 86.27724159501716 112.24380519366935 H 0.0 **** 0.06
16154 H 112.7033177764491 85.49918428283124 110.85507200551882 H 0.0 **** 0.06
16155 H 114.02925125976392 86.65623082173761 110.58586471416825 H 0.0 **** 0.06
16156 C 84.85171948192996 202.09790584320208 102.62029406919712 C 0.0 **** -0.24
16157 H 83.79897058161131 202.16232308868976 102.89628636125357 H 0.0 **** 0.06
16158 H 85.16993950252814 203.04444064489252 102.18098384052436 H 0.0 **** 0.06
16159 H 84.98725709124022 201.29668927797073 101.89454333327186 H 0.0 **** 0.06
16160 H 85.4484074270135 201.88987758560734 103.50847947219367 H 0.0 **** 0.06
16161 C 49.67823047541212 201.97248831762613 184.46037462624713 C 0.0 **** -0.24
16162 H 49.372870848712154 201.7263740587575 183.4441739456616 H 0.0 **** 0.06
16163 H 48.796351433902686 202.04729197460028 185.09732152114148 H 0.0 **** 0.06
16164 H 50.20907513337731 202.92498897462679 184.46053536500511 H 0.0 **** 0.06
16165 H 50.33621280398373 201.19028786596488 184.84103496451166 H 0.0 **** 0.06
16166 C 140.4574839479506 4.312758781293795 238.1016934205684 C 0.0 **** -0.24
16167 H 140.22386306822548 5.111742065875859 238.80477062576472 H 0.0 **** 0.06
16168 H 140.56341170962224 3.3724477188006574 238.64270357210435 H 0.0 **** 0.06
16169 H 141.3897431934513 4.544111514266447 237.58631959262274 H 0.0 **** 0.06
16170 H 139.65168096026977 4.2245560161023405 237.3733669958084 H 0.0 **** 0.06
16171 C 166.3958762127509 196.9903117208202 2.72313307698127 C 0.0 **** -0.24
16172 H 165.96281181896472 195.9913504102423 2.663929121556265 H 0.0 **** 0.06
16173 H 167.02114270545584 197.06261640307838 3.6123070771383254 H 0.0 **** 0.06
16174 H 165.59535024620408 197.72890629393336 2.77999973736533 H 0.0 **** 0.06
16175 H 167.00077444452555 197.17745306619008 1.8369424670462706 H 0.0 **** 0.06
16176 C 123.4085623523479 133.39573980631678 73.18229011621699 C 0.0 **** -0.24
16177 H 124.20079751294938 133.88981799366195 72.61886951421184 H 0.0 **** 0.06
16178 H 123.84921828321168 132.68318689680342 73.8797621754855 H 0.0 **** 0.06
16179 H 122.74665981644804 132.86986728065926 72.49445097394869 H 0.0 **** 0.06
16180 H 122.83834702800769 134.14123820421452 73.73635526555944 H 0.0 **** 0.06
16181 C 94.25614366945885 63.857408243853655 7.011662865766226 C 0.0 **** -0.24
16182 H 93.98705734462621 64.8700066445563 6.714352289453672 H 0.0 **** 0.06
16183 H 94.4022606086979 63.24414553187617 6.121189801922839 H 0.0 **** 0.06
16184 H 93.457737347461 63.432012350650524 7.619091249275371 H 0.0 **** 0.06
16185 H 95.17930080329549 63.88262616661686 7.5909611783591515 H 0.0 **** 0.06
16186 C 2.4123279728994476 142.6857780935091 140.07934431743067 C 0.0 **** -0.24
16187 H 3.2096994685410323 143.34354389060434 139.7338252577358 H 0.0 **** 0.06
16188 H 1.7495798965326799 142.4501333628779 139.24722346782318 H 0.0 **** 0.06
16189 H 1.8463847711852566 143.18464117843618 140.86599829650686 H 0.0 **** 0.06
16190 H 2.845993747884364 141.7657096014171 140.4716178675248 H 0.0 **** 0.06
16191 C 51.88967354670868 234.0414793849856 85.9877804055391 C 0.0 **** -0.24
16192 H 51.59940298065459 233.46989610201533 86.86855058254781 H 0.0 **** 0.06
16193 H 51.123053798768794 234.78406740199586 85.76660453046256 H 0.0 **** 0.06
16194 H 51.99826945209844 233.36724586080942 85.13752652282241 H 0.0 **** 0.06
16195 H 52.83834247527632 234.54374379332134 86.17705083847233 H 0.0 **** 0.06
16196 C 247.36496568972103 45.35973468152734 51.81927036716732 C 0.0 **** -0.24
16197 H 247.01747394114352 45.952301817528635 50.97199280978194 H 0.0 **** 0.06
16198 H 248.33993024841345 44.93126989366924 51.58578672904966 H 0.0 **** 0.06
16199 H 246.65352383208375 44.55900633101092 52.018411397422454 H 0.0 **** 0.06
16200 H 247.4494995351418 45.99829155483715 52.69825370707528 H 0.0 **** 0.06
16201 C 52.175314725329045 220.58852845651313 26.2290408653365 C 0.0 **** -0.24
16202 H 51.77354173792851 220.0914059776745 27.112949963419638 H 0.0 **** 0.06
16203 H 52.07948029197394 221.66780537200972 26.34468542093053 H 0.0 **** 0.06
16204 H 51.61916135499955 220.26681248410668 25.348317393119558 H 0.0 **** 0.06
16205 H 53.22679873157078 220.3258921391286 26.112207137909778 H 0.0 **** 0.06
16206 C 220.13629364433345 65.04909479899368 132.02646427482415 C 0.0 **** -0.24
16207 H 219.24880779766096 65.64637111021835 131.81451272220679 H 0.0 **** 0.06
16208 H 220.0501668536474 64.61005683119905 133.01990445823168 H 0.0 **** 0.06
16209 H 221.0199037734837 65.68660738675325 131.98532528175966 H 0.0 **** 0.06
16210 H 220.22602419221664 64.25624804293406 131.28424596879012 H 0.0 **** 0.06
16211 C 171.27113016696737 222.55575056904615 157.47934629722815 C 0.0 **** -0.24
16212 H 171.75811226386585 223.29127935050894 158.12017655943185 H 0.0 **** 0.06
16213 H 170.45216956493456 223.03042739628765 156.93937777410056 H 0.0 **** 0.06
16214 H 170.88033814887646 221.74308449240166 158.0919252867419 H 0.0 **** 0.06
16215 H 171.99510036471133 222.15875725300123 156.76797014790267 H 0.0 **** 0.06
16216 C 202.99471009946353 129.9156284421739 137.46101258034952 C 0.0 **** -0.24
16217 H 202.5450505044895 128.94868525469124 137.23780935664158 H 0.0 **** 0.06
16218 H 204.00174831332538 129.952737444973 137.04562056512813 H 0.0 **** 0.06
16219 H 203.04294180911842 130.05223290963448 138.5410965981496 H 0.0 **** 0.06
16220 H 202.390371061493 130.70803696144085 137.0211698582473 H 0.0 **** 0.06
16221 C 76.05141089765019 191.6953048865733 66.74323810517802 C 0.0 **** -0.24
16222 H 77.02186714775473 192.0193490502837 67.12043782027322 H 0.0 **** 0.06
16223 H 76.18039060286509 190.80342060576828 66.13023628460039 H 0.0 **** 0.06
16224 H 75.61190718274841 192.48993641251468 66.14113945702522 H 0.0 **** 0.06
16225 H 75.39383568946155 191.46887744508012 67.58169741522192 H 0.0 **** 0.06
16226 C 19.12196530922249 137.04856234810458 36.05057902413745 C 0.0 **** -0.24
16227 H 18.936811603667294 135.97377787075098 36.05857997994157 H 0.0 **** 0.06
16228 H 18.17222482755028 137.5799955551847 35.97937968057978 H 0.0 **** 0.06
16229 H 19.745896412201887 137.30283542729126 35.19443900201499 H 0.0 **** 0.06
16230 H 19.630960952373016 137.3361917543989 36.96974348983338 H 0.0 **** 0.06
16231 C 90.0737122164914 134.70199739837034 197.4164486324247 C 0.0 **** -0.24
16232 H 90.86496554536976 135.45202208550188 197.4306864091832 H 0.0 **** 0.06
16233 H 90.32307509069315 133.92690390486212 196.69071809201597 H 0.0 **** 0.06
16234 H 89.13126733708287 135.17321402331027 197.13597560591802 H 0.0 **** 0.06
16235 H 89.97736360744821 134.25655249808327 198.40613764746786 H 0.0 **** 0.06
16236 C 242.5479956017852 35.449602584172425 147.69620745460966 C 0.0 **** -0.24
16237 H 242.8815107740479 34.49999782904476 147.27814525277375 H 0.0 **** 0.06
16238 H 241.47876076907266 35.398437821296255 147.90452360866297 H 0.0 **** 0.06
16239 H 242.74097956944294 36.2486386207336 146.97999228090868 H 0.0 **** 0.06
16240 H 243.0898246044686 35.65087725544359 148.6201768289703 H 0.0 **** 0.06
16241 C 147.54006723249393 203.01840925386213 215.18484828009127 C 0.0 **** -0.24
16242 H 147.74460327975027 202.97452059621224 214.1154412699953 H 0.0 **** 0.06
16243 H 147.3967443990938 204.05650887510495 215.48434170033846 H 0.0 **** 0.06
16244 H 148.3812843234262 202.5944798794925 215.73290599319404 H 0.0 **** 0.06
16245 H 146.63746862059446 202.44817938557787 215.40571977510314 H 0.0 **** 0.06
16246 C 126.35238846626442 234.96764738040886 209.62441413737858 C 0.0 **** -0.24
16247 H 126.4047401575406 236.05113081674278 209.51770184992225 H 0.0 **** 0.06
16248 H 125.93157787177668 234.7185350611525 210.59904077055683 H 0.0 **** 0.06
16249 H 127.3546889667521 234.5462492699046 209.54263445947666 H 0.0 **** 0.06
16250 H 125.71937777390261 234.55514819391195 208.83798774829435 H 0.0 **** 0.06
16251 C 125.23682153346559 216.2728136198382 84.29466549079487 C 0.0 **** -0.24
16252 H 124.73344572793405 217.2390769208586 84.33411933075143 H 0.0 **** 0.06
16253 H 124.49698062925341 215.48372161185262 84.15743642739403 H 0.0 **** 0.06
16254 H 125.77678433886132 216.1074223884728 85.22704228146154 H 0.0 **** 0.06
16255 H 125.93860957190012 216.26242288478284 83.46144994922463 H 0.0 **** 0.06
16256 C 247.299397704866 227.07218811428172 10.827316597849872 C 0.0 **** -0.24
16257 H 246.2445893888522 227.10024293360894 11.09791759252711 H 0.0 **** 0.06
16258 H 247.9069485243851 227.2510465841212 11.71464135347199 H 0.0 **** 0.06
16259 H 247.50491112920557 227.84234789673877 10.084557753455599 H 0.0 **** 0.06
16260 H 247.54115495399628 226.09302565164393 10.412946134187095 H 0.0 **** 0.06
16261 C 130.9524826482062 110.99529089490741 47.11001303246526 C 0.0 **** -0.24
16262 H 130.96619992916777 112.02909124325387 46.76331250600903 H 0.0 **** 0.06
16263 H 129.91980618687748 110.66472661200447 47.225057190002815 H 0.0 **** 0.06
16264 H 131.46601941028618 110.92850828386801 48.06901441076543 H 0.0 **** 0.06
16265 H 131.4580904723044 110.36135080411839 46.381384003643646 H 0.0 **** 0.06
16266 C 202.8647464523429 1.5922521015545925 220.37056601265724 C 0.0 **** -0.24
16267 H 203.4805018996442 0.8886034781908592 220.93107418953846 H 0.0 **** 0.06
16268 H 203.39751107108142 1.9051985921051369 219.47241461812226 H 0.0 **** 0.06
16269 H 202.6536050047988 2.46299691976688 220.98988443035827 H 0.0 **** 0.06
16270 H 201.92773788722388 1.1105523319520358 220.08854852376479 H 0.0 **** 0.06
16271 C 134.49519386147747 168.47180008082466 190.11455122202514 C 0.0 **** -0.24
16272 H 135.56389951184477 168.46414852020052 189.90084288526646 H 0.0 **** 0.06
16273 H 134.0063733384224 167.6782395016368 189.54921798026857 H 0.0 **** 0.06
16274 H 134.07451348657418 169.43625466010727 189.82695259056953 H 0.0 **** 0.06
16275 H 134.3361469905594 168.3107665412889 191.18088178187077 H 0.0 **** 0.06
16276 C 65.2321890158706 1.4008834837853215 117.49885617100765 C 0.0 **** -0.24
16277 H 65.30228763759058 1.6011416946291206 116.42964505877907 H 0.0 **** 0.06
16278 H 66.23420085439088 1.3661634360636299 117.92819563699126 H 0.0 **** 0.06
16279 H 64.73560109634522 0.443188990026286 117.65734362032256 H 0.0 **** 0.06
16280 H 64.65733312035465 2.192488003083696 117.97973927097766 H 0.0 **** 0.06
16281 C 215.70533644758657 6.667375472975991 239.7429457196549 C 0.0 **** -0.24
16282 H 215.87213448386944 6.367041909870039 238.70797289604434 H 0.0 **** 0.06
16283 H 216.13132064996447 7.656468102884972 239.90750508768812 H 0.0 **** 0.06
16284 H 216.1824264158641 5.949747312155097 240.41100901150423 H 0.0 **** 0.06
16285 H 214.63390170414306 6.694946904288514 239.94436068294402 H 0.0 **** 0.06
16286 C 62.597007852195134 79.60091401206293 209.81305355251493 C 0.0 **** -0.24
16287 H 61.80820654290298 80.29393908365782 209.52200492278024 H 0.0 **** 0.06
16288 H 62.17690021193155 78.8162231760642 210.44303723591582 H 0.0 **** 0.06
16289 H 63.36818119618994 80.13863512826836 210.36539606568414 H 0.0 **** 0.06
16290 H 63.03433656653354 79.15447343559774 208.91939143123147 H 0.0 **** 0.06
16291 C 163.9713521754698 64.2018739678422 217.0209935993265 C 0.0 **** -0.24
16292 H 164.3116819168439 63.744397374768 216.0920100671019 H 0.0 **** 0.06
16293 H 164.28377272008072 65.24566810650498 217.04650369832058 H 0.0 **** 0.06
16294 H 164.4058815519724 63.67114445013715 217.86695633488924 H 0.0 **** 0.06
16295 H 162.88447373495194 64.14629050736949 217.07630451319645 H 0.0 **** 0.06
16296 C 41.71068272201005 173.67059754560802 17.785764952467133 C 0.0 **** -0.24
16297 H 41.45170341460093 174.55717747005863 17.206374469615398 H 0.0 **** 0.06
16298 H 42.17205929454617 172.93041835479062 17.131755016491255 H 0.0 **** 0.06
16299 H 40.80851701405405 173.25134225309426 18.23035419737988 H 0.0 **** 0.06
16300 H 42.4109930531413 173.94561549774878 18.5747377907185 H 0.0 **** 0.06
16301 C 9.0572391668764 160.49215567892858 23.754098842915653 C 0.0 **** -0.24
16302 H 8.335557822884766 159.85084839333632 23.24728272182344 H 0.0 **** 0.06
16303 H 8.57213152822574 160.9928320799933 24.59216524357575 H 0.0 **** 0.06
16304 H 9.436707782168511 161.23642759386897 23.0547316679218 H 0.0 **** 0.06
16305 H 9.884622280626289 159.88509206493333 24.123726407344265 H 0.0 **** 0.06
16306 C 80.86054979987497 196.02313716474896 83.8118677495155 C 0.0 **** -0.24
16307 H 80.71027816223625 196.5443027695673 82.8660673358585 H 0.0 **** 0.06
16308 H 80.98422796491758 194.95614016937142 83.62276273532069 H 0.0 **** 0.06
16309 H 79.99434259451351 196.18085689099766 84.45453962186204 H 0.0 **** 0.06
16310 H 81.75260401767025 196.41228773120594 84.30293361123887 H 0.0 **** 0.06
16311 C 193.83726155815756 216.13940039839832 176.7990914366511 C 0.0 **** -0.24
16312 H 193.04404726676213 216.6526678634141 177.34167521441037 H 0.0 **** 0.06
16313 H 193.48333677263244 215.87288249824238 175.80246360323088 H 0.0 **** 0.06
16314 H 194.12108749232823 215.2356486284378 177.33840595271508 H 0.0 **** 0.06
16315 H 194.70258720275135 216.7968791744926 176.71297082031896 H 0.0 **** 0.06
16316 C 26.563543113510292 75.36621141569742 192.9987540370519 C 0.0 **** -0.24
16317 H 25.79196799039505 76.0552798986437 193.3401467881814 H 0.0 **** 0.06
16318 H 26.200998210658696 74.34156975351357 193.0868689406563 H 0.0 **** 0.06
16319 H 27.45722860813845 75.48931338703144 193.61109848025967 H 0.0 **** 0.06
16320 H 26.805316080643138 75.57861781932061 191.9573540558044 H 0.0 **** 0.06
16321 C 20.442298686020735 185.32649745824736 190.54187643959222 C 0.0 **** -0.24
16322 H 20.15204705123486 186.28565412809516 190.11396285860266 H 0.0 **** 0.06
16323 H 21.2984880946008 184.9291994191181 189.99628360751083 H 0.0 **** 0.06
16324 H 19.607957972271464 184.62875965319847 190.46845913731056 H 0.0 **** 0.06
16325 H 20.710475980752534 185.46289196822661 191.58962690952723 H 0.0 **** 0.06
16326 C 18.528724464972385 216.2779535554754 49.9319281715032 C 0.0 **** -0.24
16327 H 19.02866597598026 216.80254325189787 49.1176329510192 H 0.0 **** 0.06
16328 H 18.237078782625588 215.28272701356116 49.597438278365274 H 0.0 **** 0.06
16329 H 17.641095693834558 216.83511698981818 50.23153398070782 H 0.0 **** 0.06
16330 H 19.207978267518655 216.1921574395106 50.78042912794825 H 0.0 **** 0.06
16331 C 132.9399502261042 36.27120123629247 90.98717194137768 C 0.0 **** -0.24
16332 H 133.39350616975315 36.346049735529064 89.99818999521497 H 0.0 **** 0.06
16333 H 133.7251170876143 36.212211961507506 91.74180420088581 H 0.0 **** 0.06
16334 H 132.3208320400538 35.376495191265064 91.03541419022278 H 0.0 **** 0.06
16335 H 132.32351896019492 37.1510216038493 91.17155248252723 H 0.0 **** 0.06
16336 C 4.475588319920831 47.591246245935025 76.64775047192896 C 0.0 **** -0.24
16337 H 4.648043681435269 47.80087266592571 75.59198701191394 H 0.0 **** 0.06
16338 H 4.127740001788652 48.49622742946295 77.14644695254896 H 0.0 **** 0.06
16339 H 5.40606680863749 47.25714389220846 77.10785369744349 H 0.0 **** 0.06
16340 H 3.72167374220831 46.8099933727145 76.7449786960515 H 0.0 **** 0.06
16341 C 232.40394459013163 248.38155056721234 217.5884142331079 C 0.0 **** -0.24
16342 H 231.88149583575736 248.672802390658 218.49988625567124 H 0.0 **** 0.06
16343 H 231.85248506273274 247.58253304046764 217.09325269690024 H 0.0 **** 0.06
16344 H 233.40529132062667 248.03151131644546 217.83985373007164 H 0.0 **** 0.06
16345 H 232.47640635403758 249.24108424298217 216.92070416174073 H 0.0 **** 0.06
16346 C 40.76316082058011 207.04514773205847 135.6569196465745 C 0.0 **** -0.24
16347 H 41.14480335325291 207.3820376312433 134.69279115521456 H 0.0 **** 0.06
16348 H 41.276581785590224 207.57885660295625 136.45740658200938 H 0.0 **** 0.06
16349 H 40.93825313319337 205.97489612946083 135.7625451642184 H 0.0 **** 0.06
16350 H 39.6937949012119 207.2455053127143 135.71399790990645 H 0.0 **** 0.06
16351 C 64.52656325069302 11.679433396416442 216.92342565380727 C 0.0 **** -0.24
16352 H 64.5678467373528 11.101243027388051 217.8475106920223 H 0.0 **** 0.06
16353 H 64.02094356821414 11.097476959461687 216.1525748151577 H 0.0 **** 0.06
16354 H 65.53941613810369 11.914382955784248 216.59745741221957 H 0.0 **** 0.06
16355 H 63.97737489787272 12.604726747308177 217.09970084843133 H 0.0 **** 0.06
16356 C 12.646969523517939 27.988606579887858 146.74441228048562 C 0.0 **** -0.24
16357 H 12.97892423499043 28.845764722633632 147.33139658195552 H 0.0 **** 0.06
16358 H 11.758061291159066 27.556942797991653 147.20367592611632 H 0.0 **** 0.06
16359 H 13.439920284529776 27.24123930414835 146.71367441323292 H 0.0 **** 0.06
16360 H 12.41309021319907 28.312095862584513 145.73028126411913 H 0.0 **** 0.06
16361 C 85.34604335692748 75.27632630935858 192.55184716643987 C 0.0 **** -0.24
16362 H 84.82573640627763 76.23024236878999 192.46268213511803 H 0.0 **** 0.06
16363 H 85.42729819007911 74.81418215221439 191.5676683179419 H 0.0 **** 0.06
16364 H 84.78694255458339 74.6183946155248 193.21675222951393 H 0.0 **** 0.06
16365 H 86.3426133400196 75.44403730664723 192.95852866992658 H 0.0 **** 0.06
16366 C 145.6425084212182 60.86603959284005 146.46777343353486 C 0.0 **** -0.24
16367 H 144.97119164907116 61.33175453103121 147.18969584136622 H 0.0 **** 0.06
16368 H 145.2475154128589 59.89110114548939 146.18147966825669 H 0.0 **** 0.06
16369 H 146.62843889652277 60.741549762430196 146.9169069999552 H 0.0 **** 0.06
16370 H 145.7228461188968 61.50012884573144 145.58521508632555 H 0.0 **** 0.06
16371 C 172.7641218273967 229.45323955708 195.55955442653482 C 0.0 **** -0.24
16372 H 173.04908370614118 229.93492544969948 196.49426560435944 H 0.0 **** 0.06
16373 H 172.37243184888206 230.20170709234114 194.87029403719947 H 0.0 **** 0.06
16374 H 171.99865811650855 228.7033520717155 195.75654078545762 H 0.0 **** 0.06
16375 H 173.6370478226191 228.97316848652488 195.11776766952997 H 0.0 **** 0.06
16376 C 207.75308775555158 185.650588156372 201.24180926738546 C 0.0 **** -0.24
16377 H 206.92545189275165 184.95686435093086 201.0945553111599 H 0.0 **** 0.06
16378 H 207.81176612877812 185.92733254101853 202.2945779815721 H 0.0 **** 0.06
16379 H 207.58933635270643 186.5440879399032 200.6391790440622 H 0.0 **** 0.06
16380 H 208.68570738392043 185.17341494962199 200.93967695370003 H 0.0 **** 0.06
16381 C 63.36032703537583 183.16816300559276 125.15030005979432 C 0.0 **** -0.24
16382 H 62.63414353702785 183.97817742182755 125.08502573397328 H 0.0 **** 0.06
16383 H 62.83560214126351 182.2170950775473 125.24003939907155 H 0.0 **** 0.06
16384 H 63.99331471580757 183.3192777613268 126.02531120618556 H 0.0 **** 0.06
16385 H 63.977455203727715 183.16049839823273 124.25244504008293 H 0.0 **** 0.06
16386 C 26.21477202836246 147.53746005074885 71.44505486868104 C 0.0 **** -0.24
16387 H 25.597720908569755 146.64842553808523 71.57457366279951 H 0.0 **** 0.06
16388 H 27.263558183869307 147.27546693946974 71.5893420526564 H 0.0 **** 0.06
16389 H 25.924168809475674 148.29145271833735 72.17601135656005 H 0.0 **** 0.06
16390 H 26.074140801607754 147.93399510575318 70.43958563686502 H 0.0 **** 0.06
16391 C 203.32192915487775 24.58177216248599 247.8115920280996 C 0.0 **** -0.24
16392 H 203.07747787610197 24.31354920430816 248.8389057951858 H 0.0 **** 0.06
16393 H 204.33507150629498 24.251064611972723 247.58063603401678 H 0.0 **** 0.06
16394 H 203.25693868012024 25.663723690150974 247.69354667410158 H 0.0 **** 0.06
16395 H 202.61822855699376 24.09875114351199 247.13327960909413 H 0.0 **** 0.06
16396 C 98.30091617153352 215.77420577344333 130.31667172020258 C 0.0 **** -0.24
16397 H 99.20833961290478 215.1734743128417 130.25980368201448 H 0.0 **** 0.06
16398 H 97.4533364666112 215.1290807796428 130.5514438879381 H 0.0 **** 0.06
16399 H 98.12926477163299 216.26469851019144 129.35876867890954 H 0.0 **** 0.06
16400 H 98.41208322401692 216.52722100150146 131.09694316200287 H 0.0 **** 0.06
16401 C 200.74856058758937 128.52838970904247 47.9577606435024 C 0.0 **** -0.24
16402 H 201.28564612012661 129.4667809064124 47.816199102132146 H 0.0 **** 0.06
16403 H 201.46253065809208 127.72770094143596 48.15259855529344 H 0.0 **** 0.06
16404 H 200.17911210643723 128.29663964636293 47.05761570730665 H 0.0 **** 0.06
16405 H 200.0680116662495 128.62407003343841 48.804165993256476 H 0.0 **** 0.06
16406 C 233.06229635746587 166.17987402893337 150.0510621382552 C 0.0 **** -0.24
16407 H 232.23531261236366 166.01562754342345 149.3602202266951 H 0.0 **** 0.06
16408 H 233.08034513512516 167.22637317220122 150.35333245048656 H 0.0 **** 0.06
16409 H 234.00158219751063 165.92667067081635 149.55974784389394 H 0.0 **** 0.06
16410 H 232.93133478131878 165.54920662198023 150.9310418355614 H 0.0 **** 0.06
16411 C 108.5282564169693 195.80987469546284 111.31712540240633 C 0.0 **** -0.24
16412 H 109.08430084492832 196.73214895145105 111.48416239167119 H 0.0 **** 0.06
16413 H 109.03683132737285 194.983727288205 111.81405355724561 H 0.0 **** 0.06
16414 H 108.46932389163123 195.6105040593498 110.24673767628371 H 0.0 **** 0.06
16415 H 107.52173293091542 195.913659490216 111.7236334186365 H 0.0 **** 0.06
16416 C 217.96117719997366 189.64116350453315 12.505454760099013 C 0.0 **** -0.24
16417 H 217.20852430428388 188.98495244878464 12.942350899655906 H 0.0 **** 0.06
16418 H 218.08881991211686 190.51959230171838 13.139531075437134 H 0.0 **** 0.06
16419 H 217.63868170375818 189.95319086835957 11.512204466201041 H 0.0 **** 0.06
16420 H 218.90791906152813 189.1064861870315 12.428841559787287 H 0.0 **** 0.06
16421 C 100.58318309687846 152.8657809751021 213.90544747461405 C 0.0 **** -0.24
16422 H 100.22217440832236 153.88079557656386 213.73787462444656 H 0.0 **** 0.06
16423 H 101.09959685623642 152.8183691327218 214.8644529597211 H 0.0 **** 0.06
16424 H 101.27228715049426 152.5888959288062 213.10769259877569 H 0.0 **** 0.06
16425 H 99.73884161669679 152.17633753566813 213.91235975136846 H 0.0 **** 0.06
16426 C 236.1445953502112 52.28385352033055 15.213873743150472 C 0.0 **** -0.24
16427 H 235.5247138154251 53.1650997116887 15.047923133399053 H 0.0 **** 0.06
16428 H 236.90116749537464 52.21897501953933 14.430910810862088 H 0.0 **** 0.06
16429 H 235.5188643379514 51.39122079599389 15.1910462135816 H 0.0 **** 0.06
16430 H 236.6321403898034 52.36133939017637 16.186137777325868 H 0.0 **** 0.06
16431 C 186.86304000574074 172.91322111578387 224.1251332950148 C 0.0 **** -0.24
16432 H 187.0617817197229 172.39245897397828 223.18932291060054 H 0.0 **** 0.06
16433 H 187.62894134181957 173.67105489927968 224.28989879100487 H 0.0 **** 0.06
16434 H 186.87583458221334 172.198048811431 224.94842756564947 H 0.0 **** 0.06
16435 H 185.88399755566502 173.3898048991483 224.07394394913268 H 0.0 **** 0.06
16436 C 239.9505785355874 166.31117780096247 152.8087960744851 C 0.0 **** -0.24
16437 H 239.7361588954201 167.37155458374303 152.677609716734 H 0.0 **** 0.06
16438 H 240.63364882704644 166.17975757381717 153.64718515881947 H 0.0 **** 0.06
16439 H 240.40807334234262 165.9187539377969 151.90075060208213 H 0.0 **** 0.06
16440 H 239.02255689841132 165.775469025303 153.00829674303768 H 0.0 **** 0.06
16441 C 119.51060171751149 125.29869331025338 145.3900995496625 C 0.0 **** -0.24
16442 H 118.91031165706354 125.48854205742973 146.27964767175894 H 0.0 **** 0.06
16443 H 119.03346207691493 125.75968633756679 144.52536389083113 H 0.0 **** 0.06
16444 H 119.59403566585581 124.22408101686395 145.23058542677433 H 0.0 **** 0.06
16445 H 120.50511277370202 125.72451019706261 145.5255407289806 H 0.0 **** 0.06
16446 C 246.18319275247316 115.7852948446 144.13539065430842 C 0.0 **** -0.24
16447 H 246.77488733108217 116.66446899489142 143.88038495257894 H 0.0 **** 0.06
16448 H 246.18018283929405 115.0928620844133 143.29310721627007 H 0.0 **** 0.06
16449 H 245.16047132098964 116.08873563429054 144.36035984128173 H 0.0 **** 0.06
16450 H 246.61772257305427 115.29587534172072 145.00729200121123 H 0.0 **** 0.06
16451 C 67.56990767055734 129.98242163096015 127.42056026829388 C 0.0 **** -0.24
16452 H 67.34686192059792 130.33532843505884 128.42787400223224 H 0.0 **** 0.06
16453 H 68.29827920927036 130.64798529364094 126.95677962366028 H 0.0 **** 0.06
16454 H 66.65597841301465 129.97337568135032 126.82743967120652 H 0.0 **** 0.06
16455 H 67.97946425998967 128.97370193986322 127.47204377975112 H 0.0 **** 0.06
16456 C 237.80917973995878 223.98375707775594 39.335317204011574 C 0.0 **** -0.24
16457 H 238.05792084854835 224.00453113163698 40.39585709405513 H 0.0 **** 0.06
16458 H 237.85565040722634 222.95673192931469 38.971852763111144 H 0.0 **** 0.06
16459 H 238.51989657427262 224.59796790801414 38.78252139627722 H 0.0 **** 0.06
16460 H 236.80164819422743 224.37516680787516 39.191219368670374 H 0.0 **** 0.06
16461 C 123.16882901947744 81.96305678051195 230.7075316830043 C 0.0 **** -0.24
16462 H 122.31290691228341 82.62868232523519 230.82169190123682 H 0.0 **** 0.06
16463 H 122.87631190504428 81.09393010414891 230.11831769180378 H 0.0 **** 0.06
16464 H 123.50868485408714 81.63773534224785 231.6910313258403 H 0.0 **** 0.06
16465 H 123.97511864335868 82.49210951589768 230.19991390307746 H 0.0 **** 0.06
16466 C 245.6537850823506 87.3896183890883 210.14547493386135 C 0.0 **** -0.24
16467 H 246.7185688883872 87.17183382903997 210.23216926343807 H 0.0 **** 0.06
16468 H 245.07831267166804 86.55937148559082 210.5561002648629 H 0.0 **** 0.06
16469 H 245.39541040240766 87.5271206954692 209.09552388302197 H 0.0 **** 0.06
16470 H 245.4237975296615 88.30036913648001 210.69788272261087 H 0.0 **** 0.06
16471 C 107.60597887755844 93.01175358861036 53.79141499928866 C 0.0 **** -0.24
16472 H 107.75222608900214 93.1074217963444 54.86696737315705 H 0.0 **** 0.06
16473 H 106.97968535687275 93.82947529576941 53.43587569481306 H 0.0 **** 0.06
16474 H 107.11978126030311 92.0610738756302 53.57444836337547 H 0.0 **** 0.06
16475 H 108.57234080786353 93.04874873251748 53.28931686099119 H 0.0 **** 0.06
16476 C 65.91308622244631 214.09057144294988 73.65352377804578 C 0.0 **** -0.24
16477 H 64.88690876732116 214.0159698051021 74.0137611969032 H 0.0 **** 0.06
16478 H 66.56753551710014 214.37206176208252 74.47929003004867 H 0.0 **** 0.06
16479 H 65.96913623990744 214.84719465681755 72.87079759439902 H 0.0 **** 0.06
16480 H 66.22738438062729 213.12787546011162 73.25144210349191 H 0.0 **** 0.06
16481 C 75.79932733840789 115.44493572365585 68.77966272323411 C 0.0 **** -0.24
16482 H 76.28700044055321 114.71308728752035 69.42159290300185 H 0.0 **** 0.06
16483 H 75.94007009854724 116.44373050928806 69.19417210982658 H 0.0 **** 0.06
16484 H 74.73387133731134 115.2229902159211 68.72034772402498 H 0.0 **** 0.06
16485 H 76.23570748646168 115.40085228705505 67.78168797995778 H 0.0 **** 0.06
16486 C 225.0871353270158 15.83561711894788 128.71687195030955 C 0.0 **** -0.24
16487 H 225.54824619527642 16.613535876444914 128.10814479864788 H 0.0 **** 0.06
16488 H 224.01434369395446 15.81467877606697 128.52688968751787 H 0.0 **** 0.06
16489 H 225.26606329559758 16.04563336781824 129.77072844576423 H 0.0 **** 0.06
16490 H 225.520667574276 14.868565503626726 128.4596297595122 H 0.0 **** 0.06
16491 C 106.29280681503906 78.90286598483294 159.29314766044956 C 0.0 **** -0.24
16492 H 107.01117328464815 78.19174344459304 159.70033792528042 H 0.0 **** 0.06
16493 H 106.68050062039342 79.31865531523022 158.36291687236377 H 0.0 **** 0.06
16494 H 106.1308651571861 79.7072412270173 160.01160778543067 H 0.0 **** 0.06
16495 H 105.34885996685523 78.39367936919896 159.09870253337408 H 0.0 **** 0.06
16496 C 73.0789962810266 66.4023372048766 28.025359226114233 C 0.0 **** -0.24
16497 H 72.02928675334289 66.30960457521152 27.747270871067045 H 0.0 **** 0.06
16498 H 73.67325490905625 66.6126605126743 27.13606660868608 H 0.0 **** 0.06
16499 H 73.41790754568359 65.47078231702213 28.477970769174775 H 0.0 **** 0.06
16500 H 73.19423094902498 67.21655232684535 28.740612518786676 H 0.0 **** 0.06
16501 C 92.07947571465579 176.72547515894328 164.2182687265955 C 0.0 **** -0.24
16502 H 92.24266309605113 177.67757463311239 163.71327165797754 H 0.0 **** 0.06
16503 H 91.38133730962278 176.86654599951098 165.04350709003793 H 0.0 **** 0.06
16504 H 93.0282736267564 176.3519500483635 164.60443461091748 H 0.0 **** 0.06
16505 H 91.66688417684796 176.0055803794 163.5112600274293 H 0.0 **** 0.06
16506 C 170.82488336720652 36.34768934727285 188.35509533920785 C 0.0 **** -0.24
16507 H 170.3010301421589 37.18645138825994 187.8957135646881 H 0.0 **** 0.06
16508 H 170.8107838106811 35.49541696646841 187.6752081666557 H 0.0 **** 0.06
16509 H 170.3282628842962 36.07723209242019 189.2868885230623 H 0.0 **** 0.06
16510 H 171.8565818444939 36.631546437578464 188.561720529089 H 0.0 **** 0.06
16511 C 73.70433763243406 21.06766251674506 209.97185154767214 C 0.0 **** -0.24
16512 H 73.18365737078986 20.448091464188536 209.24179651988328 H 0.0 **** 0.06
16513 H 74.443148726163 20.46488612298512 210.4993971380759 H 0.0 **** 0.06
16514 H 72.98531024599001 21.469689939442702 210.6857465957368 H 0.0 **** 0.06
16515 H 74.20406492493922 21.890009151569558 209.4585882359053 H 0.0 **** 0.06
16516 C 34.01961042301063 200.28191660974196 159.11895282950323 C 0.0 **** -0.24
16517 H 34.45011753882409 199.43934440758744 158.57670169938925 H 0.0 **** 0.06
16518 H 34.59482574194797 201.1826707453426 158.90598830647662 H 0.0 **** 0.06
16519 H 34.04810209371065 200.0763901040779 160.1890928440269 H 0.0 **** 0.06
16520 H 32.98596271980587 200.4261602396802 158.8042803467591 H 0.0 **** 0.06
16521 C 73.89528931364674 162.39815853298398 216.39745892747663 C 0.0 **** -0.24
16522 H 74.16172806395738 161.52303144303812 216.9901102056642 H 0.0 **** 0.06
16523 H 73.33146324204753 162.084171687931 215.51904331333793 H 0.0 **** 0.06
16524 H 74.80376638876882 162.91273220562928 216.08164422623287 H 0.0 **** 0.06
16525 H 73.28625482889873 163.07182049527069 216.99910509638488 H 0.0 **** 0.06
16526 C 108.73495508685266 28.614193306705957 82.06863281643476 C 0.0 **** -0.24
16527 H 108.15919654103976 29.25733593952674 82.73314331764038 H 0.0 **** 0.06
16528 H 109.75920874493909 28.540074635661952 82.43276524644463 H 0.0 **** 0.06
16529 H 108.7353983999489 29.03747112389111 81.06384414788172 H 0.0 **** 0.06
16530 H 108.28460704698114 27.62199500560014 82.04482649920666 H 0.0 **** 0.06
16531 C 56.16851945880558 166.99330713989852 108.58946864978157 C 0.0 **** -0.24
16532 H 56.219134561478796 167.92776542367466 109.14684319183854 H 0.0 **** 0.06
16533 H 57.05342620222157 166.39355760586014 108.80650122353316 H 0.0 **** 0.06
16534 H 56.12898658566178 167.2089797602525 107.52120320843369 H 0.0 **** 0.06
16535 H 55.275543211113444 166.44181501239342 108.88202704402735 H 0.0 **** 0.06
16536 C 183.7206152284063 27.00670740881378 126.79050531352453 C 0.0 **** -0.24
16537 H 183.5002049096788 26.108150427625475 126.21564168104047 H 0.0 **** 0.06
16538 H 182.83910322966972 27.294375996442085 127.36555398289991 H 0.0 **** 0.06
16539 H 183.99075366925575 27.815711852396802 126.11112499953893 H 0.0 **** 0.06
16540 H 184.54932614733482 26.810665463597786 127.46919546030654 H 0.0 **** 0.06
16541 C 111.76974416274496 18.646819784106583 60.269728432120644 C 0.0 **** -0.24
16542 H 110.97815936225365 19.386898285018916 60.389823775215945 H 0.0 **** 0.06
16543 H 111.7234602744472 18.225531282762844 59.26564359180628 H 0.0 **** 0.06
16544 H 111.63861663373163 17.851976942641528 61.00352608201945 H 0.0 **** 0.06
16545 H 112.73829396718926 19.124158567299318 60.41953675685821 H 0.0 **** 0.06
16546 C 7.5151479652453475 24.331835854748846 43.419401133904444 C 0.0 **** -0.24
16547 H 6.770599768663658 24.593094063315988 44.17115687680969 H 0.0 **** 0.06
16548 H 8.314702682862873 23.75472776720457 43.884261415206964 H 0.0 **** 0.06
16549 H 7.928192716180291 25.24326312782918 42.98634693884301 H 0.0 **** 0.06
16550 H 7.045836222227507 23.737933968433623 42.63506217215691 H 0.0 **** 0.06
16551 C 24.272423249201907 112.8817631168522 181.8896771647439 C 0.0 **** -0.24
16552 H 25.173208887028338 112.63473684370413 182.45165832603197 H 0.0 **** 0.06
16553 H 24.025560245077415 112.05783189771466 181.22068346887323 H 0.0 **** 0.06
16554 H 24.444666278499852 113.78603550806761 181.30687673579888 H 0.0 **** 0.06
16555 H 23.447726960319656 113.04807824298078 182.58345298500876 H 0.0 **** 0.06
16556 C 201.86996371279483 201.87079951726255 159.74262841218288 C 0.0 **** -0.24
16557 H 202.03330820826886 202.8633604838144 159.3236954040137 H 0.0 **** 0.06
16558 H 202.7168848563415 201.59847779436856 160.37258557472703 H 0.0 **** 0.06
16559 H 201.77080234332266 201.14674139849154 158.93333091324948 H 0.0 **** 0.06
16560 H 200.95818015988706 201.87484922780138 160.34020512279034 H 0.0 **** 0.06
16561 C 189.93107392988315 218.28072633868078 168.18504946869677 C 0.0 **** -0.24
16562 H 190.499185002777 218.0058714534491 167.29618717756685 H 0.0 **** 0.06
16563 H 188.86534804973257 218.2639680695984 167.95431999637697 H 0.0 **** 0.06
16564 H 190.2183533296083 219.28180982135942 168.50410426115033 H 0.0 **** 0.06
16565 H 190.14181149248984 217.5704617796663 168.98353521623892 H 0.0 **** 0.06
16566 C 82.4947591606213 244.38906140521766 36.0339866300625 C 0.0 **** -0.24
16567 H 83.54769983390904 244.110128645396 36.054309311573604 H 0.0 **** 0.06
16568 H 82.23417562182343 244.89485722611485 36.96384273639573 H 0.0 **** 0.06
16569 H 81.8839893696869 243.4932769445013 35.92400469406542 H 0.0 **** 0.06
16570 H 82.31277610743871 245.05832571285168 35.19247606307343 H 0.0 **** 0.06
16571 C 36.11930897796843 87.47661393889467 183.11433031826812 C 0.0 **** -0.24
16572 H 35.29253339150371 87.07111115313691 182.530672717684 H 0.0 **** 0.06
16573 H 36.37794235364858 88.4660493462842 182.73758250099763 H 0.0 **** 0.06
16574 H 36.98247232540126 86.81672829484145 183.02721234453082 H 0.0 **** 0.06
16575 H 35.822272992009786 87.55130687623284 184.16031987618607 H 0.0 **** 0.06
16576 C 165.3591985867861 58.38881778206135 71.4719843454078 C 0.0 **** -0.24
16577 H 166.077862363942 57.94150255404671 72.15759649300273 H 0.0 **** 0.06
16578 H 164.35113076449267 58.08200267386391 71.7506388320808 H 0.0 **** 0.06
16579 H 165.57269997185566 58.0583664086565 70.4557385031382 H 0.0 **** 0.06
16580 H 165.43493421116398 59.475560883414204 71.52451176279465 H 0.0 **** 0.06
16581 C 199.72268955137127 19.067497073287697 14.173312118059883 C 0.0 **** -0.24
16582 H 199.74275922584548 18.9818653325255 15.259493491761447 H 0.0 **** 0.06
16583 H 199.82620789449666 18.077519329654166 13.728918609657399 H 0.0 **** 0.06
16584 H 200.54656995755482 19.701493660492417 13.843921796802078 H 0.0 **** 0.06
16585 H 198.77666689899354 19.510046358585484 13.861096099690656 H 0.0 **** 0.06
16586 C 230.1889565699839 46.60098479411894 230.68357796539073 C 0.0 **** -0.24
16587 H 231.21211709256863 46.234636245753364 230.59716118800102 H 0.0 **** 0.06
16588 H 229.5253146326188 45.772038991925285 230.9275898409607 H 0.0 **** 0.06
16589 H 229.88196289172657 47.04763858716743 229.73762826047636 H 0.0 **** 0.06
16590 H 230.13897726079023 47.352023714988036 231.47326220422696 H 0.0 **** 0.06
16591 C 85.65581583769799 101.3400850845043 167.25391459387237 C 0.0 **** -0.24
16592 H 85.5237192993176 101.31995003996994 168.33491673873817 H 0.0 **** 0.06
16593 H 84.6855367822177 101.24847860741286 166.76698506558148 H 0.0 **** 0.06
16594 H 86.29488917845126 100.51033524057092 166.9507759500089 H 0.0 **** 0.06
16595 H 86.12141904001751 102.28216572804575 166.96238192039408 H 0.0 **** 0.06
16596 C 195.10113188917018 240.54324508042677 179.21349056324217 C 0.0 **** -0.24
16597 H 196.08874867683534 240.73957346651588 179.63011846536472 H 0.0 **** 0.06
16598 H 195.17354705539793 239.75752652448043 178.4620972210402 H 0.0 **** 0.06
16599 H 194.71437549979174 241.45198359711634 178.75293832223872 H 0.0 **** 0.06
16600 H 194.42826188708653 240.225205058306 180.00916013214652 H 0.0 **** 0.06
16601 C 84.82121833346648 164.39363292203493 219.04159461080997 C 0.0 **** -0.24
16602 H 85.46921752758917 163.7253746544119 218.47594322968231 H 0.0 **** 0.06
16603 H 85.1610347435325 165.42188586887113 218.9150945695531 H 0.0 **** 0.06
16604 H 84.85607838608288 164.12680316309394 220.0980321286696 H 0.0 **** 0.06
16605 H 83.79785698620401 164.30163832529036 218.67690827676572 H 0.0 **** 0.06
16606 C 4.169360466883376 217.0637878720805 96.48033631697874 C 0.0 **** -0.24
16607 H 4.7504097513207455 217.13246786415647 95.56007854462553 H 0.0 **** 0.06
16608 H 3.3584760235657143 216.34720282110445 96.3447123286858 H 0.0 **** 0.06
16609 H 3.7535701782097988 218.04241933113624 96.72031646847347 H 0.0 **** 0.06
16610 H 4.814261157366246 216.73388005277104 97.2934442296141 H 0.0 **** 0.06
16611 C 167.49110913645868 56.985659213907894 48.95602607731993 C 0.0 **** -0.24
16612 H 167.03301715772815 56.110147962393484 49.416534882665175 H 0.0 **** 0.06
16613 H 166.85650590084 57.34211708505882 48.14441157992859 H 0.0 **** 0.06
16614 H 168.47092988164795 56.717466190025874 48.56079402005497 H 0.0 **** 0.06
16615 H 167.60278292238104 57.77168814934086 49.7026397952274 H 0.0 **** 0.06
16616 C 52.16241912274309 8.734605728062476 177.642204219751 C 0.0 **** -0.24
16617 H 52.28622425316486 9.478330088167453 176.85589199063395 H 0.0 **** 0.06
16618 H 52.29098067345434 9.209610654315313 178.61594486203916 H 0.0 **** 0.06
16619 H 52.908524866401436 7.9483260187003 177.52030252488333 H 0.0 **** 0.06
16620 H 51.16476323423426 8.301022255648647 177.57770101446292 H 0.0 **** 0.06
16621 C 2.314161694391089 107.41279611457716 88.2323037370335 C 0.0 **** -0.24
16622 H 3.2349586588309336 107.90966974416739 87.92859317626562 H 0.0 **** 0.06
16623 H 1.9064173910091569 107.90995832974167 89.11265814708958 H 0.0 **** 0.06
16624 H 2.524412949156556 106.36919465746874 88.46876089708766 H 0.0 **** 0.06
16625 H 1.5896344368800186 107.46174530283093 87.41885133628693 H 0.0 **** 0.06
16626 C 177.5664588089324 81.98717559945604 125.5090041564147 C 0.0 **** -0.24
16627 H 178.2228782879917 81.86506566950206 124.6479076498567 H 0.0 **** 0.06
16628 H 178.15182129724968 81.90783510694277 126.42582061904307 H 0.0 **** 0.06
16629 H 176.80300486520935 81.20903006939713 125.49654690731555 H 0.0 **** 0.06
16630 H 177.08861964846238 82.96546330920839 125.46596400978868 H 0.0 **** 0.06
16631 C 67.6569172560481 42.1303644186452 123.79923070062253 C 0.0 **** -0.24
16632 H 67.89889911690582 42.48287376619484 124.80192133535084 H 0.0 **** 0.06
16633 H 68.03970656947578 42.83672348162182 123.06332664828807 H 0.0 **** 0.06
16634 H 66.5742271357411 42.04736643626799 123.69539417161997 H 0.0 **** 0.06
16635 H 68.11227204209123 41.153255155285905 123.63722428835155 H 0.0 **** 0.06
16636 C 161.8278870394098 42.01123749171222 240.6105379160125 C 0.0 **** -0.24
16637 H 161.65663454923964 42.49984946338013 241.57002501883056 H 0.0 **** 0.06
16638 H 162.0426593192346 40.95452085969282 240.77438360953892 H 0.0 **** 0.06
16639 H 162.67370246804862 42.481088654028525 240.110329261395 H 0.0 **** 0.06
16640 H 160.93758717333063 42.10838810620058 239.98910290164005 H 0.0 **** 0.06
16641 C 93.65608059828216 112.14527459952598 206.27827752946845 C 0.0 **** -0.24
16642 H 93.50917240385414 113.18913420480868 205.99784804975891 H 0.0 **** 0.06
16643 H 94.09989403713652 112.09593059695695 207.27247688944422 H 0.0 **** 0.06
16644 H 94.31999909316542 111.66653319767138 205.55823900646536 H 0.0 **** 0.06
16645 H 92.69490390155178 111.63210514498081 206.28252359345228 H 0.0 **** 0.06
16646 C 100.74934223208095 98.02241012862152 60.48168623156994 C 0.0 **** -0.24
16647 H 100.48705235852583 97.38549995957936 59.637077431562176 H 0.0 **** 0.06
16648 H 100.09234968017665 98.8918086779575 60.49944898320413 H 0.0 **** 0.06
16649 H 101.78472562102482 98.35088762177185 60.380151192694996 H 0.0 **** 0.06
16650 H 100.63596135764007 97.46069566402997 61.40904711563908 H 0.0 **** 0.06
16651 C 193.34203089152288 189.04633643109986 136.5689646507405 C 0.0 **** -0.24
16652 H 193.2868864407842 190.03873320173915 136.12323682654215 H 0.0 **** 0.06
16653 H 194.09840953608364 189.04283206022018 137.35441715966803 H 0.0 **** 0.06
16654 H 193.609738098543 188.318715378849 135.80381498590285 H 0.0 **** 0.06
16655 H 192.3733919314376 188.78526270139807 136.99575692608633 H 0.0 **** 0.06
16656 C 21.256914639419406 80.25547930719893 212.98304418411564 C 0.0 **** -0.24
16657 H 21.72504244593192 79.954857271273 212.04545508323454 H 0.0 **** 0.06
16658 H 21.348242276071375 81.33455739397081 213.10474590644506 H 0.0 **** 0.06
16659 H 21.751937906273866 79.75154317953118 213.81260726461122 H 0.0 **** 0.06
16660 H 20.202694649826455 79.97944914744284 212.96642699337664 H 0.0 **** 0.06
16661 C 89.0907207350246 171.89333291912448 103.53808899139463 C 0.0 **** -0.24
16662 H 88.23374083523137 171.2368540863125 103.69114639670164 H 0.0 **** 0.06
16663 H 88.76228403368921 172.81010850695594 103.04825491172306 H 0.0 **** 0.06
16664 H 89.82652837730433 171.38870937796204 102.91107481687234 H 0.0 **** 0.06
16665 H 89.53897055060241 172.13485434368906 104.50134807589896 H 0.0 **** 0.06
16666 C 244.4121827268106 212.7506000018289 20.934644686602468 C 0.0 **** -0.24
16667 H 244.82311687025947 211.76716176665946 21.159604509718264 H 0.0 **** 0.06
16668 H 244.28642008777587 213.31204177291488 21.861172872273556 H 0.0 **** 0.06
16669 H 243.44560904287937 212.63760642536198 20.44396624679436 H 0.0 **** 0.06
16670 H 245.09529919488008 213.28679053301352 20.274622572818288 H 0.0 **** 0.06
16671 C 146.80784735327128 83.78466125349439 2.7393458139639506 C 0.0 **** -0.24
16672 H 146.8307713882149 83.17877694218231 1.8327542450217464 H 0.0 **** 0.06
16673 H 147.22972335304527 84.76879013317443 2.5287666492023533 H 0.0 **** 0.06
16674 H 147.39481990001698 83.29620898102908 3.5167280684222533 H 0.0 **** 0.06
16675 H 145.77749540233432 83.89512593847263 3.076504491435074 H 0.0 **** 0.06
16676 C 141.33436793818427 198.6850655252227 208.47150605708163 C 0.0 **** -0.24
16677 H 140.95774498380837 198.1526565343864 209.34420209470449 H 0.0 **** 0.06
16678 H 141.5200478412217 199.72670423571262 208.73314385617167 H 0.0 **** 0.06
16679 H 140.59593411339287 198.6381074118016 207.67080699003535 H 0.0 **** 0.06
16680 H 142.26320627846417 198.22276283706472 208.13622537056892 H 0.0 **** 0.06
16681 C 39.236801710565686 126.99432460994987 209.44142500516557 C 0.0 **** -0.24
16682 H 39.96597229788719 127.38416012751168 210.15106370518882 H 0.0 **** 0.06
16683 H 39.487791698338384 127.33714909651437 208.43697790376447 H 0.0 **** 0.06
16684 H 38.24226971727731 127.35090400566085 209.709993098121 H 0.0 **** 0.06
16685 H 39.25132603323928 125.90411098406625 209.4674994414436 H 0.0 **** 0.06
16686 C 212.13651797975706 112.14600103673851 30.038077068211493 C 0.0 **** -0.24
16687 H 211.2899898464104 112.64295651879132 29.563707020440006 H 0.0 **** 0.06
16688 H 212.49603564430507 112.75377961889546 30.86842025819314 H 0.0 **** 0.06
16689 H 212.9370020761951 112.01782360089032 29.308882763937362 H 0.0 **** 0.06
16690 H 211.82470327324347 111.17080419426134 30.409454581461972 H 0.0 **** 0.06
16691 C 73.55188267878412 248.82898484990346 102.07570382561977 C 0.0 **** -0.24
16692 H 73.3977482566257 248.79023059527623 103.15385050042528 H 0.0 **** 0.06
16693 H 73.34199829229846 249.83724841723148 101.71498133101676 H 0.0 **** 0.06
16694 H 72.88147832333206 248.12201285352023 101.587215173413 H 0.0 **** 0.06
16695 H 74.5843709877825 248.56851026850384 101.8467290763333 H 0.0 **** 0.06
16696 C 173.3939913560621 246.69473584032778 222.34087477562198 C 0.0 **** -0.24
16697 H 174.27005355682 246.1436022628103 222.68294402383393 H 0.0 **** 0.06
16698 H 173.28525929524187 247.604661093846 222.931540456497 H 0.0 **** 0.06
16699 H 172.5046983046634 246.0749922705648 222.46181426307245 H 0.0 **** 0.06
16700 H 173.5159453606347 246.9553578124772 221.29018216391304 H 0.0 **** 0.06
16701 C 200.6638937772594 199.98141609160137 171.35302109279183 C 0.0 **** -0.24
16702 H 201.23775564146396 200.60739761984507 172.03629721232207 H 0.0 **** 0.06
16703 H 200.55448516818714 198.98391751630243 171.7795840138761 H 0.0 **** 0.06
16704 H 201.18505218925927 199.9130830481616 170.39825982874873 H 0.0 **** 0.06
16705 H 199.6780391891065 200.4202972569289 171.19799004025126 H 0.0 **** 0.06
16706 C 90.7410770296963 63.470835114105 205.54754223983684 C 0.0 **** -0.24
16707 H 91.7960773465463 63.25240246436016 205.37919709577582 H 0.0 **** 0.06
16708 H 90.13500187230878 62.88336384538135 204.85708732346433 H 0.0 **** 0.06
16709 H 90.55830988407726 64.53153512198293 205.37874584799778 H 0.0 **** 0.06
16710 H 90.47633980778082 63.213910718701555 206.57302877007177 H 0.0 **** 0.06
16711 C 179.43654906565183 109.153065805882 28.871763796475136 C 0.0 **** -0.24
16712 H 179.6810352677273 109.68558041189166 27.95273808465639 H 0.0 **** 0.06
16713 H 179.12659431508328 108.13593379011249 28.630117167885317 H 0.0 **** 0.06
16714 H 178.62604894723233 109.66810066227768 29.385691034679482 H 0.0 **** 0.06
16715 H 180.31431325182686 109.12181015279515 29.517068905988836 H 0.0 **** 0.06
16716 C 179.7835135416458 6.552547122531905 166.94758020494368 C 0.0 **** -0.24
16717 H 178.90946748854145 6.413371533910521 166.3111218602042 H 0.0 **** 0.06
16718 H 179.57922015361146 7.335664633530058 167.67828449038194 H 0.0 **** 0.06
16719 H 180.63685366448445 6.840965594892424 166.333928848675 H 0.0 **** 0.06
16720 H 180.0072214050486 5.620731845864299 167.46679851088444 H 0.0 **** 0.06
16721 C 122.76465439570455 180.15721023755953 76.07735097968947 C 0.0 **** -0.24
16722 H 122.04616198087459 180.59009321498505 75.3804560390983 H 0.0 **** 0.06
16723 H 123.67214252515421 179.88338549474287 75.53916432550864 H 0.0 **** 0.06
16724 H 122.33324301887637 179.27030028615792 76.54054912634876 H 0.0 **** 0.06
16725 H 123.00608990904738 180.88853171477146 76.84922037714531 H 0.0 **** 0.06
16726 C 196.61962483165104 156.4533734399887 197.40372143675026 C 0.0 **** -0.24
16727 H 195.94560497904132 156.9948449362421 198.06655128955478 H 0.0 **** 0.06
16728 H 197.49965815952265 157.06535385395884 197.20195945016724 H 0.0 **** 0.06
16729 H 196.10828653516074 156.23184673505233 196.46751492956858 H 0.0 **** 0.06
16730 H 196.9267280829714 155.52217042687923 197.8803818146427 H 0.0 **** 0.06
16731 C 0.1163691039884327 174.18690238928747 120.74591788716893 C 0.0 **** -0.24
16732 H 0.007893176795278123 175.1542016689491 121.23622966888385 H 0.0 **** 0.06
16733 H 1.1721582350364486 173.9927359503759 120.55551232237912 H 0.0 **** 0.06
16734 H -0.42870315145609084 174.195077660687 119.80197563720796 H 0.0 **** 0.06
16735 H -0.2871317480556854 173.4057575876804 121.39149859216036 H 0.0 **** 0.06
16736 C 24.997998792364427 194.43041223334387 90.44226053708806 C 0.0 **** -0.24
16737 H 24.95738237132717 194.41829965781324 89.35356399960659 H 0.0 **** 0.06
16738 H 24.254365019275042 195.13012050924553 90.82539330987777 H 0.0 **** 0.06
16739 H 25.990664240075205 194.7422474176141 90.76646678664562 H 0.0 **** 0.06
16740 H 24.788098397256945 193.43142908981304 90.82551382145374 H 0.0 **** 0.06
16741 C 195.78091944845744 15.194300818457052 99.57366659578986 C 0.0 **** -0.24
16742 H 195.22411927530453 15.288077165443553 100.50591395087224 H 0.0 **** 0.06
16743 H 195.19670291267266 14.61343243840841 98.85897537082477 H 0.0 **** 0.06
16744 H 196.72707407755854 14.68978039239326 99.76515578650555 H 0.0 **** 0.06
16745 H 195.97357089673469 16.18563502794305 99.1648103091722 H 0.0 **** 0.06
16746 C 137.25688445150104 185.14410787715744 107.83762377635381 C 0.0 **** -0.24
16747 H 137.0218412638681 184.09200304151005 107.67726267853078 H 0.0 **** 0.06
16748 H 138.29283269712505 185.23773335572173 108.1650563366868 H 0.0 **** 0.06
16749 H 136.59527549223003 185.55262470766002 108.60124419882825 H 0.0 **** 0.06
16750 H 137.11941794159526 185.69338551362338 106.9058439672043 H 0.0 **** 0.06
16751 C 226.050900079426 55.51065020975929 182.89535623870594 C 0.0 **** -0.24
16752 H 225.9655046011752 56.14835883068537 182.01627496660424 H 0.0 **** 0.06
16753 H 226.79312556781963 55.928285854595885 183.57645709206164 H 0.0 **** 0.06
16754 H 226.36045979148676 54.510281660795016 182.58975332964135 H 0.0 **** 0.06
16755 H 225.08632173084507 55.454078772635654 183.3985240419474 H 0.0 **** 0.06
16756 C 47.57824178543498 201.85532452757653 242.33218338733215 C 0.0 **** -0.24
16757 H 46.88810089271243 201.30008094063788 242.96633846550031 H 0.0 **** 0.06
16758 H 48.00686831945569 201.18438495051666 241.58737337639957 H 0.0 **** 0.06
16759 H 48.37614696272 202.27490103516791 242.9444867815916 H 0.0 **** 0.06
16760 H 47.043030447430624 202.66115566337442 241.8304488280795 H 0.0 **** 0.06
16761 C 20.83690421125378 132.17659485465205 170.91962371922168 C 0.0 **** -0.24
16762 H 20.088504606591684 131.87846088690767 171.65361945115657 H 0.0 **** 0.06
16763 H 21.03470944392889 131.34305939127515 170.24518966257273 H 0.0 **** 0.06
16764 H 21.756894860425078 132.45654760283074 171.43246894929257 H 0.0 **** 0.06
16765 H 20.465322620620356 133.0272388094082 170.34694530365832 H 0.0 **** 0.06
16766 C 173.4595053872896 203.39767390102483 210.2208379720558 C 0.0 **** -0.24
16767 H 174.46128561451954 203.63891137445555 210.57509976592905 H 0.0 **** 0.06
16768 H 173.3756905314012 203.65602709541722 209.16457035479522 H 0.0 **** 0.06
16769 H 172.72613883958704 203.96530378935105 210.79344462915446 H 0.0 **** 0.06
16770 H 173.27530477976552 202.33131424218928 210.34918818686037 H 0.0 **** 0.06
16771 C 127.89313374048467 248.4586957142873 242.78801567127277 C 0.0 **** -0.24
16772 H 127.17779524664863 247.9196145857175 243.40834617641957 H 0.0 **** 0.06
16773 H 128.88720294860317 248.3794852736811 243.2271029932008 H 0.0 **** 0.06
16774 H 127.60467729605315 249.50879501631908 242.72941604043515 H 0.0 **** 0.06
16775 H 127.9013061712096 248.02864773859045 241.7864970651087 H 0.0 **** 0.06
16776 C 246.11004557267438 60.401160793518784 197.27834482312824 C 0.0 **** -0.24
16777 H 246.9765432942536 60.685456039742235 197.87427725858072 H 0.0 **** 0.06
16778 H 246.3854741383771 59.594062527900604 196.5998788631562 H 0.0 **** 0.06
16779 H 245.76842376624552 61.26017839401683 196.70115865807378 H 0.0 **** 0.06
16780 H 245.30922274889733 60.06514097555302 197.93723180767003 H 0.0 **** 0.06
16781 C 211.96998264341693 216.82079239454254 76.62116271951598 C 0.0 **** -0.24
16782 H 212.78059657620193 217.4739844222155 76.3000976424756 H 0.0 **** 0.06
16783 H 211.0181916794279 217.343268171948 76.51374477610213 H 0.0 **** 0.06
16784 H 212.116695288981 216.54493135782673 77.66526551805322 H 0.0 **** 0.06
16785 H 211.96205810952065 215.92086061505728 76.00501616435102 H 0.0 **** 0.06
16786 C 2.8848206605898525 23.777896678277983 106.58038979087704 C 0.0 **** -0.24
16787 H 2.426426865322668 24.75057205635241 106.7585647192395 H 0.0 **** 0.06
16788 H 2.227356896614012 22.99237198954617 106.95433890728387 H 0.0 **** 0.06
16789 H 3.8429454034967705 23.727596092492803 107.09789090147518 H 0.0 **** 0.06
16790 H 3.042262143562212 23.642037272436284 105.50979837344286 H 0.0 **** 0.06
16791 C 52.597726123891874 67.8406303905054 200.43833734500572 C 0.0 **** -0.24
16792 H 53.064278686877316 67.42621588119647 199.5448325122381 H 0.0 **** 0.06
16793 H 53.15515301407251 68.71867318986898 200.76415887762892 H 0.0 **** 0.06
16794 H 52.60224992777168 67.09160656981084 201.23079392391526 H 0.0 **** 0.06
16795 H 51.569962499663546 68.12442732220973 200.21261672063915 H 0.0 **** 0.06
16796 C 158.83137127137337 235.35118277379308 137.22099360860742 C 0.0 **** -0.24
16797 H 159.3623159227047 234.40516135933362 137.32901598498685 H 0.0 **** 0.06
16798 H 159.4661472579037 236.1655378826013 137.5734447321542 H 0.0 **** 0.06
16799 H 157.91498535374234 235.32251911235016 137.81124086361513 H 0.0 **** 0.06
16800 H 158.58272002251942 235.5112548143785 136.17213467529314 H 0.0 **** 0.06
16801 C 123.70179357005784 175.00254703492692 171.86423012914412 C 0.0 **** -0.24
16802 H 123.10511208724063 174.8047244532236 170.97321216481365 H 0.0 **** 0.06
16803 H 124.71987896050635 174.64717457001973 171.7049626858562 H 0.0 **** 0.06
16804 H 123.26368492282305 174.48308027964828 172.71584193153086 H 0.0 **** 0.06
16805 H 123.717195954874 176.0747693032236 172.06023713169327 H 0.0 **** 0.06
16806 C 213.07621301277612 168.47384757339253 208.97015672003846 C 0.0 **** -0.24
16807 H 213.25791826669217 168.86447881808792 209.97154975141697 H 0.0 **** 0.06
16808 H 212.85336489466306 167.4078659345017 209.03151180804528 H 0.0 **** 0.06
16809 H 213.96277783530354 168.62483572489114 208.35449531959313 H 0.0 **** 0.06
16810 H 212.23073068707671 168.99675215645638 208.5250376501018 H 0.0 **** 0.06
16811 C 83.37830169302634 97.58108836949378 248.5840254638489 C 0.0 **** -0.24
16812 H 84.01604524412625 97.95212106908915 247.78149915829295 H 0.0 **** 0.06
16813 H 83.83029107239452 97.81909582312693 249.5461094554346 H 0.0 **** 0.06
16814 H 83.26851952249396 96.50106715104667 248.49045942559687 H 0.0 **** 0.06
16815 H 82.39785709945247 98.05296759213658 248.51521432512118 H 0.0 **** 0.06
16816 C 163.7526935080526 42.290869025998376 174.5496999560736 C 0.0 **** -0.24
16817 H 164.32920049585707 43.212267716513864 174.63325064288296 H 0.0 **** 0.06
16818 H 162.75635586317392 42.44766845721982 174.96197631543038 H 0.0 **** 0.06
16819 H 164.2548425245117 41.49782255452854 175.10332457916223 H 0.0 **** 0.06
16820 H 163.6721490275631 42.00707851423043 173.50027482618574 H 0.0 **** 0.06
16821 C 209.9329180182223 104.14645115292592 131.21840219466563 C 0.0 **** -0.24
16822 H 209.4444252544007 103.19650521338997 130.9997835594598 H 0.0 **** 0.06
16823 H 210.99910680475463 104.06179215959327 131.00763242031604 H 0.0 **** 0.06
16824 H 209.78779556026268 104.39528715814419 132.26895474904836 H 0.0 **** 0.06
16825 H 209.4993535369708 104.92867453725171 130.59538133969377 H 0.0 **** 0.06
16826 C 54.86636296244387 73.86110967911696 166.86179926617976 C 0.0 **** -0.24
16827 H 55.643740506391964 73.09766948857754 166.89661020237327 H 0.0 **** 0.06
16828 H 55.301215763901894 74.83338541329096 167.09263796087643 H 0.0 **** 0.06
16829 H 54.09347870896073 73.62543100686065 167.5941967503923 H 0.0 **** 0.06
16830 H 54.42624848607619 73.8858291062491 165.8647005896643 H 0.0 **** 0.06
16831 C 162.80945384922595 110.92253043834461 191.3796321576254 C 0.0 **** -0.24
16832 H 163.6215242676728 111.64581959968277 191.4526184027152 H 0.0 **** 0.06
16833 H 162.4800314296283 110.84840902174278 190.3426772571261 H 0.0 **** 0.06
16834 H 161.9765021282385 111.24825098608571 192.0033998491294 H 0.0 **** 0.06
16835 H 163.15942981992512 109.9479254365414 191.72117935511508 H 0.0 **** 0.06
16836 C 238.13161434894178 87.76219307264819 94.25428155971326 C 0.0 **** -0.24
16837 H 238.70576181701716 86.98547314956645 93.74981510051916 H 0.0 **** 0.06
16838 H 237.06790370197865 87.54657895711921 94.15975764681252 H 0.0 **** 0.06
16839 H 238.34948911317366 88.72735149466118 93.7978296244124 H 0.0 **** 0.06
16840 H 238.40534136519656 87.78856293554549 95.309282377378 H 0.0 **** 0.06
16841 C 29.81447401499267 122.1735173865199 113.8653123001294 C 0.0 **** -0.24
16842 H 30.703246204576317 121.68002530098855 113.47090624744149 H 0.0 **** 0.06
16843 H 28.93269675890143 121.57801713376878 113.62523334417065 H 0.0 **** 0.06
16844 H 29.719000165510607 123.16164468840398 113.41588294806326 H 0.0 **** 0.06
16845 H 29.902756102423552 122.27228699885606 114.94686645875464 H 0.0 **** 0.06
16846 C 183.03214383031764 243.70108112662405 157.95143232271374 C 0.0 **** -0.24
16847 H 183.49116239592843 244.21832845775188 158.793545567506 H 0.0 **** 0.06
16848 H 182.58682030841163 244.43215421924157 157.27626221945707 H 0.0 **** 0.06
16849 H 182.25844910988388 243.0263446609685 158.31764912929376 H 0.0 **** 0.06
16850 H 183.79101355743256 243.1283466009511 157.41823116884603 H 0.0 **** 0.06
16851 C 38.19475346284625 140.16193899982943 47.55145851145116 C 0.0 **** -0.24
16852 H 39.26936971250856 140.3150205805543 47.65246602558102 H 0.0 **** 0.06
16853 H 37.788027311402146 139.81203951616257 48.50094088120929 H 0.0 **** 0.06
16854 H 38.00465205427113 139.4178706233813 46.77895526910062 H 0.0 **** 0.06
16855 H 37.7180847772307 141.1023629770855 47.27621631072236 H 0.0 **** 0.06
16856 C 233.67775719285527 98.32437642124398 65.67710498011326 C 0.0 **** -0.24
16857 H 234.2875444663376 98.46642756554996 66.57019934102448 H 0.0 **** 0.06
16858 H 234.3277857424108 98.17350626201377 64.81550319011552 H 0.0 **** 0.06
16859 H 233.05829485905747 99.20635701752607 65.51617577771714 H 0.0 **** 0.06
16860 H 233.0395083789639 97.45106151291765 65.80889680370962 H 0.0 **** 0.06
16861 C 144.97274381651235 245.21204635887054 54.08569979658668 C 0.0 **** -0.24
16862 H 145.40552240806412 245.37618675230033 55.07185910309752 H 0.0 **** 0.06
16863 H 144.053703489866 244.63412603240988 54.183216685616316 H 0.0 **** 0.06
16864 H 145.68145895292892 244.66570384707273 53.46428425703252 H 0.0 **** 0.06
16865 H 144.74943183938646 246.17402016940156 53.622525170517264 H 0.0 **** 0.06
16866 C 225.239544458245 161.963391141158 86.64737498355078 C 0.0 **** -0.24
16867 H 225.13699525432548 162.56880935038114 87.54743832165931 H 0.0 **** 0.06
16868 H 224.31694924712366 162.01481614157035 86.06874805711868 H 0.0 **** 0.06
16869 H 225.43781064554915 160.92863287008248 86.92626278472224 H 0.0 **** 0.06
16870 H 226.0670429423813 162.342555221813 86.0468157122535 H 0.0 **** 0.06
16871 C 109.5139764722137 76.23054830240244 83.58127452673449 C 0.0 **** -0.24
16872 H 109.42813792153672 76.4114369952479 82.50979863175147 H 0.0 **** 0.06
16873 H 108.5552520282416 76.43234488788076 84.06095688606553 H 0.0 **** 0.06
16874 H 110.2751094995593 76.88748846281086 84.00175842115314 H 0.0 **** 0.06
16875 H 109.79461420393432 75.19207353656407 83.75352196843525 H 0.0 **** 0.06
16876 C 146.29895826043162 28.09885475457051 19.55907665271775 C 0.0 **** -0.24
16877 H 146.4491494952955 28.320091455516916 20.614871360843466 H 0.0 **** 0.06
16878 H 147.17581172010054 27.581243887197246 19.166907564804234 H 0.0 **** 0.06
16879 H 146.1507696991881 29.029044607883264 19.00999417983543 H 0.0 **** 0.06
16880 H 145.42020730024095 27.464605901347028 19.442124903310187 H 0.0 **** 0.06
16881 C 7.939802799274247 108.87276258490706 5.873219174706804 C 0.0 **** -0.24
16882 H 8.622195768138369 109.52078635356395 6.423773083253707 H 0.0 **** 0.06
16883 H 8.321818328315345 107.85204349557944 5.883181270862707 H 0.0 **** 0.06
16884 H 7.858729974657734 109.22193749665388 4.844389919537548 H 0.0 **** 0.06
16885 H 6.957247266811663 108.89779336335954 6.344004317528601 H 0.0 **** 0.06
16886 C 143.62644091813527 208.42314207422834 126.34671573006901 C 0.0 **** -0.24
16887 H 143.41184763933995 207.35731634924417 126.26555032626288 H 0.0 **** 0.06
16888 H 143.75039940757867 208.68991983482272 127.39612341318463 H 0.0 **** 0.06
16889 H 142.80041246036265 208.9933546802531 125.92118647819692 H 0.0 **** 0.06
16890 H 144.54334453000564 208.65121454422837 125.80191457552363 H 0.0 **** 0.06
16891 C 38.84564811037038 31.525597579785625 161.76564490222304 C 0.0 **** -0.24
16892 H 38.47299416270934 31.866755669310265 162.73049501686714 H 0.0 **** 0.06
16893 H 39.91089379013246 31.307248094879668 161.84368794973238 H 0.0 **** 0.06
16894 H 38.68893559424268 32.305229905137736 161.01907996224958 H 0.0 **** 0.06
16895 H 38.310723833049195 30.623682760845227 161.46736441263278 H 0.0 **** 0.06
16896 C 236.104438178115 213.62015830353124 56.34369710870047 C 0.0 **** -0.24
16897 H 235.07006498235424 213.29269142829384 56.23661250803755 H 0.0 **** 0.06
16898 H 236.7723870312727 212.82416261425465 56.01205908720735 H 0.0 **** 0.06
16899 H 236.30568261078201 213.85247663945532 57.38933253056629 H 0.0 **** 0.06
16900 H 236.26795256168 214.5096824125884 55.73517145050127 H 0.0 **** 0.06
16901 C 40.954350682999575 106.90157800113784 107.73988448045941 C 0.0 **** -0.24
16902 H 40.70950487390188 107.9162891252416 108.05315980634512 H 0.0 **** 0.06
16903 H 42.03758488683117 106.78080182231187 107.71310110587387 H 0.0 **** 0.06
16904 H 40.543458901176095 106.71881214372021 106.74649172660347 H 0.0 **** 0.06
16905 H 40.52694250418938 106.1896321798213 108.44523967835653 H 0.0 **** 0.06
16906 C 18.135159932867168 234.67735383882737 85.74603015104688 C 0.0 **** -0.24
16907 H 18.85671627937866 234.84195323263162 84.94625078120768 H 0.0 **** 0.06
16908 H 17.892628678465 233.61691264835505 85.80435362962973 H 0.0 **** 0.06
16909 H 17.229006921561606 235.24733901417108 85.54004910293997 H 0.0 **** 0.06
16910 H 18.562595144600692 235.00491379748686 86.69353222436266 H 0.0 **** 0.06
16911 C 136.90134736879142 123.11162929958465 41.24264154711747 C 0.0 **** -0.24
16912 H 137.07486682259272 123.17441938340298 42.31701670311733 H 0.0 **** 0.06
16913 H 137.44164676460176 122.25537955431886 40.8367616111133 H 0.0 **** 0.06
16914 H 137.25369737523314 124.0249379707468 40.763837508200794 H 0.0 **** 0.06
16915 H 135.8345555208517 122.99110782792704 41.053349973073324 H 0.0 **** 0.06
16916 C 31.352051316553656 183.0742907917261 221.61095884763637 C 0.0 **** -0.24
16917 H 32.273095065678405 182.74881779852808 221.12810555198163 H 0.0 **** 0.06
16918 H 31.082939719604923 184.06765435088084 221.249642680347 H 0.0 **** 0.06
16919 H 31.500528116383038 183.10825575078076 222.69072947155138 H 0.0 **** 0.06
16920 H 30.551459446157054 182.37311562142568 221.37658393207508 H 0.0 **** 0.06
16921 C 23.181995428421004 50.945381817566016 136.67844767431652 C 0.0 **** -0.24
16922 H 24.072563140937774 51.52559060706939 136.91980110417666 H 0.0 **** 0.06
16923 H 23.42115578882519 50.21863915615157 135.9019272319431 H 0.0 **** 0.06
16924 H 22.39842275722762 51.61392334791387 136.3230104054472 H 0.0 **** 0.06
16925 H 22.836339927371995 50.42336533181047 137.5720100140199 H 0.0 **** 0.06
16926 C 150.4371367494053 125.5066270950669 182.29693988118117 C 0.0 **** -0.24
16927 H 149.56587888193155 124.88052138443132 182.48916614372666 H 0.0 **** 0.06
16928 H 151.3107180254526 125.07073028224468 182.7800540257084 H 0.0 **** 0.06
16929 H 150.2604098672093 126.50564259012086 182.696847657299 H 0.0 **** 0.06
16930 H 150.60852602824804 125.5704790999877 181.2220997945852 H 0.0 **** 0.06
16931 C 114.26763513687862 25.34045432534937 120.2696405763484 C 0.0 **** -0.24
16932 H 114.09107988951675 24.638469337231342 119.45509598968411 H 0.0 **** 0.06
16933 H 113.31684875428036 25.60844010072634 120.7305597117988 H 0.0 **** 0.06
16934 H 114.74886610861941 26.237185253046277 119.87919216137155 H 0.0 **** 0.06
16935 H 114.91441674793461 24.876188930517756 121.01415905196595 H 0.0 **** 0.06
16936 C 197.3908485938568 217.42600766381105 40.352149620368365 C 0.0 **** -0.24
16937 H 197.17995721275418 216.4121975670011 40.69159987635808 H 0.0 **** 0.06
16938 H 196.53340151766804 218.06568232447424 40.56211726745714 H 0.0 **** 0.06
16939 H 197.58487450903232 217.4178438378139 39.279485708715725 H 0.0 **** 0.06
16940 H 198.2669293278425 217.80847760101634 40.87631454487183 H 0.0 **** 0.06
16941 C 76.03644244720371 89.09893238458537 91.31900479324574 C 0.0 **** -0.24
16942 H 77.05439668236045 89.48697905027683 91.27797391166948 H 0.0 **** 0.06
16943 H 75.50063291575586 89.57080780916212 92.14265174384445 H 0.0 **** 0.06
16944 H 76.06569382191961 88.01980781498074 91.47424687091299 H 0.0 **** 0.06
16945 H 75.52737208057269 89.3170517274342 90.37995586618092 H 0.0 **** 0.06
16946 C 128.6848220629218 68.57530483374083 4.662439534243333 C 0.0 **** -0.24
16947 H 127.94837320128386 68.88549891039585 3.9214541946337818 H 0.0 **** 0.06
16948 H 128.93533999400893 69.42178386639614 5.302564203128242 H 0.0 **** 0.06
16949 H 129.58352527297126 68.22440510120589 4.156491439925418 H 0.0 **** 0.06
16950 H 128.27147939079308 67.77030235355491 5.2702877174749005 H 0.0 **** 0.06
16951 C 232.37180432538648 167.84796267617028 44.7104785972991 C 0.0 **** -0.24
16952 H 232.97309910749027 168.71499549741716 44.43757524850233 H 0.0 **** 0.06
16953 H 231.5356855509723 168.16925710634052 45.33252591431901 H 0.0 **** 0.06
16954 H 232.9875417848986 167.1398412791527 45.264869285615276 H 0.0 **** 0.06
16955 H 231.99113270390012 167.370598384369 43.80787513369782 H 0.0 **** 0.06
16956 C 163.1959776093725 176.79414420781688 158.7869070153588 C 0.0 **** -0.24
16957 H 164.25433953499095 176.83566318647166 159.04710653886843 H 0.0 **** 0.06
16958 H 162.66472877171847 177.59495330453518 159.30196530235523 H 0.0 **** 0.06
16959 H 162.78512552997555 175.8313438535841 159.08984696069683 H 0.0 **** 0.06
16960 H 163.0824517318738 176.9152921781922 157.70974007795257 H 0.0 **** 0.06
16961 C 26.815109597356923 87.33518285941861 147.25699306113938 C 0.0 **** -0.24
16962 H 27.1606514856459 88.08374864614285 147.97065029309792 H 0.0 **** 0.06
16963 H 27.570734310116407 87.19679613539057 146.48277927218976 H 0.0 **** 0.06
16964 H 25.884907533629587 87.6722410077011 146.8008423369068 H 0.0 **** 0.06
16965 H 26.64560164477139 86.39106859783854 147.77405483469218 H 0.0 **** 0.06
16966 C 125.91033225483872 100.834817009533 162.3455173288632 C 0.0 **** -0.24
16967 H 125.13493951519081 101.42858870418289 162.83085417594972 H 0.0 **** 0.06
16968 H 125.46079327569183 100.21542922551339 161.5688481222777 H 0.0 **** 0.06
16969 H 126.39478594697405 100.19649528084648 163.08479438487464 H 0.0 **** 0.06
16970 H 126.64942181495854 101.49992663818622 161.89887611586832 H 0.0 **** 0.06
16971 C 11.179105352644186 16.336622824793096 65.13058765142247 C 0.0 **** -0.24
16972 H 11.330862152633998 15.392512899266748 64.60682062582327 H 0.0 **** 0.06
16973 H 11.940857484714712 17.05153124806897 64.81795013862765 H 0.0 **** 0.06
16974 H 11.254095059798672 16.17176123327151 66.205965621997 H 0.0 **** 0.06
16975 H 10.191476026393445 16.72960017878208 64.89135832166679 H 0.0 **** 0.06
16976 C 130.23574448471814 209.13354180795403 133.88268464839797 C 0.0 **** -0.24
16977 H 130.9790453172185 208.61395196839163 134.4875547521141 H 0.0 **** 0.06
16978 H 129.9207745045405 208.4895197878284 133.0613716006794 H 0.0 **** 0.06
16979 H 130.66922504555322 210.04953385551542 133.48177351474394 H 0.0 **** 0.06
16980 H 129.37267389301377 209.38119768762172 134.50213949423417 H 0.0 **** 0.06
16981 C 179.3112335135359 98.88084064580474 46.55731862858484 C 0.0 **** -0.24
16982 H 179.29721944091472 98.06388675208419 47.27972815497819 H 0.0 **** 0.06
16983 H 179.36348591111744 98.47351995749744 45.5485212775538 H 0.0 **** 0.06
16984 H 180.17996427148114 99.51214058066498 46.7416981908698 H 0.0 **** 0.06
16985 H 178.40241815548757 99.47399570829444 46.663861089004314 H 0.0 **** 0.06
16986 C 208.07177375909828 39.825784143995804 140.78160994446597 C 0.0 **** -0.24
16987 H 207.66194832775255 40.0682834824658 141.76175011262677 H 0.0 **** 0.06
16988 H 207.53022674359312 38.977999012630164 140.36088107800418 H 0.0 **** 0.06
16989 H 209.12675824752876 39.5694513488956 140.88127338576732 H 0.0 **** 0.06
16990 H 207.96826943313846 40.68775813922451 140.12160671194948 H 0.0 **** 0.06
16991 C 18.260740597571612 40.239373001051035 107.18151663736248 C 0.0 **** -0.24
16992 H 18.02713086560584 41.29386242369077 107.32686489258063 H 0.0 **** 0.06
16993 H 19.24218960478636 40.023721051718795 107.6061443225966 H 0.0 **** 0.06
16994 H 18.267467770588567 40.011587855262505 106.11562628602337 H 0.0 **** 0.06
16995 H 17.50697991539407 39.6285371440153 107.67857293310172 H 0.0 **** 0.06
16996 C 137.47122949514306 36.2068793515658 7.5121161617431085 C 0.0 **** -0.24
16997 H 138.43492113209314 36.2669876850202 7.00632175038109 H 0.0 **** 0.06
16998 H 137.1477901582762 35.16644440115577 7.5537897230114766 H 0.0 **** 0.06
16999 H 136.73511456220206 36.794624300632734 6.963135055404109 H 0.0 **** 0.06
17000 H 137.567128930097 36.59863471536562 8.524070997156116 H 0.0 **** 0.06
17001 C 30.47579812219061 198.87749231656312 173.3126587564565 C 0.0 **** -0.24
17002 H 29.578649015395598 198.30896086714736 173.5557616801368 H 0.0 **** 0.06
17003 H 30.733350792942787 198.71830443902513 172.26499544132128 H 0.0 **** 0.06
17004 H 31.299190125437207 198.54335598886274 173.94366120452426 H 0.0 **** 0.06
17005 H 30.292285261362025 199.9373651060021 173.48522253118037 H 0.0 **** 0.06
17006 C 148.9511099213739 62.088250078595706 170.87749561991444 C 0.0 **** -0.24
17007 H 149.97306512731413 61.925520948281246 171.2224019450349 H 0.0 **** 0.06
17008 H 148.95749512308416 62.2889202120474 169.80596013303605 H 0.0 **** 0.06
17009 H 148.521650091284 62.93871742326104 171.4049509241711 H 0.0 **** 0.06
17010 H 148.35492538981 61.19727477892914 171.07704661192267 H 0.0 **** 0.06
17011 C 219.84359879740788 215.7961538183315 161.08069219891792 C 0.0 **** -0.24
17012 H 219.15251249440564 215.55417743423453 160.27376672999216 H 0.0 **** 0.06
17013 H 219.34284065055542 216.43378966863176 161.8098885916706 H 0.0 **** 0.06
17014 H 220.70917423051216 216.31947643355693 160.67359861512287 H 0.0 **** 0.06
17015 H 220.1709230355238 214.8765970431166 161.56626068352818 H 0.0 **** 0.06
17016 C 221.949915632834 210.86988163566662 181.52791539720573 C 0.0 **** -0.24
17017 H 222.31775780593136 209.8966755609914 181.20177486337832 H 0.0 **** 0.06
17018 H 221.6069612544922 210.80037812305386 182.5602158016747 H 0.0 **** 0.06
17019 H 221.12255117846513 211.17726086941775 180.88894229327286 H 0.0 **** 0.06
17020 H 222.7537388855609 211.6018211439009 181.45989857541116 H 0.0 **** 0.06
17021 C 11.882569430665185 121.12706115867351 151.8000059989569 C 0.0 **** -0.24
17022 H 12.409634097232498 120.17374802693016 151.83597094230416 H 0.0 **** 0.06
17023 H 12.16917274407227 121.666335543727 150.89646006232462 H 0.0 **** 0.06
17024 H 12.144714404120236 121.71952397301138 152.67600850233956 H 0.0 **** 0.06
17025 H 10.80756373044727 120.94771512069647 151.79087856220553 H 0.0 **** 0.06
17026 C 146.5971341818988 187.73280365728976 105.6010901705234 C 0.0 **** -0.24
17027 H 146.69326743939084 186.66165502920504 105.77885288698596 H 0.0 **** 0.06
17028 H 147.58578535724993 188.1617012554638 105.4334677190466 H 0.0 **** 0.06
17029 H 146.13879641853538 188.20504538082517 106.46957782790068 H 0.0 **** 0.06
17030 H 145.97382703225753 187.90112386996304 104.72359825607177 H 0.0 **** 0.06
17031 C 248.96142635955533 130.98882251994195 119.32928894843087 C 0.0 **** -0.24
17032 H 249.4100305824361 131.38185936497916 120.24108325027518 H 0.0 **** 0.06
17033 H 248.719156647163 129.9346340157334 119.46960490841929 H 0.0 **** 0.06
17034 H 249.66543797305806 131.09383530688504 118.50428014613442 H 0.0 **** 0.06
17035 H 248.05064344395345 131.54397052988202 119.10309711765947 H 0.0 **** 0.06
17036 C 157.60648585767575 1.5860114630315678 40.13148910543522 C 0.0 **** -0.24
17037 H 157.27317799216095 0.824111994579809 39.42739988647489 H 0.0 **** 0.06
17038 H 157.99691609270687 2.4424192621560508 39.58098888727798 H 0.0 **** 0.06
17039 H 158.39009734294254 1.1742620620032937 40.768003084950564 H 0.0 **** 0.06
17040 H 156.76631618289997 1.903318706989566 40.74874156139013 H 0.0 **** 0.06
17041 C 42.35526646698602 42.830140546344225 124.9290783550484 C 0.0 **** -0.24
17042 H 41.8880866645696 42.94092908479573 125.90842993450627 H 0.0 **** 0.06
17043 H 42.930715729122454 43.72730626203199 124.69800172831478 H 0.0 **** 0.06
17044 H 41.58318663168147 42.68827361167244 124.17267100938577 H 0.0 **** 0.06
17045 H 43.018466922138515 41.96508257276676 124.93909979345807 H 0.0 **** 0.06
17046 C 90.3750294770949 107.63795592528649 240.82227748082227 C 0.0 **** -0.24
17047 H 89.95203453279424 106.64400836677268 240.9627199325738 H 0.0 **** 0.06
17048 H 89.87182414826756 108.34386281827514 241.48474291139726 H 0.0 **** 0.06
17049 H 90.23598431380512 107.9490763556413 239.786644295318 H 0.0 **** 0.06
17050 H 91.43970772236241 107.61703839728497 241.05494733324787 H 0.0 **** 0.06
17051 C 64.82229244207187 178.46876052641855 246.5588571906291 C 0.0 **** -0.24
17052 H 65.50256230106567 178.20882678211146 247.37005996385875 H 0.0 **** 0.06
17053 H 64.99595478293293 177.80474661439703 245.71246988055458 H 0.0 **** 0.06
17054 H 64.9996064703814 179.50102143973967 246.25425790038605 H 0.0 **** 0.06
17055 H 63.792715595739026 178.36277581911307 246.89997934429516 H 0.0 **** 0.06
17056 C 202.09560458570164 167.72428732543375 124.42615291660618 C 0.0 **** -0.24
17057 H 202.61674131876282 167.43678753486762 123.51353528842196 H 0.0 **** 0.06
17058 H 201.38591435285056 166.94409632979708 124.70053831768791 H 0.0 **** 0.06
17059 H 201.5617976042167 168.6604093356793 124.2600708138466 H 0.0 **** 0.06
17060 H 202.81938100143796 167.8567810731808 125.23084085856766 H 0.0 **** 0.06
17061 C 74.2469328433719 133.39650438732042 219.82136512913638 C 0.0 **** -0.24
17062 H 74.1428455409251 132.33605952980048 220.05629518405706 H 0.0 **** 0.06
17063 H 74.67591097533031 133.50623844514845 218.82560172194695 H 0.0 **** 0.06
17064 H 74.90193678050682 133.867711088207 220.55456405284554 H 0.0 **** 0.06
17065 H 73.26659549609582 133.8714686026226 219.8500921666786 H 0.0 **** 0.06
17066 C 228.31812647736848 225.9703971961608 49.43622751162124 C 0.0 **** -0.24
17067 H 228.05847203983086 225.33833410334418 50.2858282384811 H 0.0 **** 0.06
17068 H 227.4640084931843 226.59767101776617 49.1779570983573 H 0.0 **** 0.06
17069 H 228.5792198355042 225.34324337772676 48.58395471899091 H 0.0 **** 0.06
17070 H 229.16755288443417 226.60021642712266 49.698551878998444 H 0.0 **** 0.06
17071 C 120.83160795664014 72.53092135995777 238.15998384299994 C 0.0 **** -0.24
17072 H 120.8148782540377 71.44169976515664 238.2127949863675 H 0.0 **** 0.06
17073 H 120.8417365447109 72.84391083394607 237.115705827051 H 0.0 **** 0.06
17074 H 121.72577746661685 72.90412554023644 238.65897692261123 H 0.0 **** 0.06
17075 H 119.94584211316968 72.93230087763865 238.65264084868812 H 0.0 **** 0.06
17076 C 232.3664370839821 139.80752190104923 85.27299268158839 C 0.0 **** -0.24
17077 H 231.95372227287558 138.868509870321 84.90462946865554 H 0.0 **** 0.06
17078 H 231.58558058196311 140.37133947692317 85.78280581199266 H 0.0 **** 0.06
17079 H 232.74693384898828 140.38979491988118 84.43382588552504 H 0.0 **** 0.06
17080 H 233.17881737937972 139.59810403977465 85.96927925279559 H 0.0 **** 0.06
17081 C 135.40464559504917 43.453478372876575 104.81203851523452 C 0.0 **** -0.24
17082 H 135.39264645044972 42.97524298207385 105.79126448353915 H 0.0 **** 0.06
17083 H 136.3487251673809 43.236296624411224 104.31296095338416 H 0.0 **** 0.06
17084 H 135.2969591851237 44.53093078598229 104.93353129470961 H 0.0 **** 0.06
17085 H 134.57911420474508 43.07010506757635 104.21178156349623 H 0.0 **** 0.06
17086 C 34.78565607339753 84.99139375841048 93.70765796953944 C 0.0 **** -0.24
17087 H 35.811806946090314 84.67305627391161 93.5204756686999 H 0.0 **** 0.06
17088 H 34.10215582393295 84.1808931246104 93.45550385716069 H 0.0 **** 0.06
17089 H 34.55966061161634 85.86249082787128 93.09252260429949 H 0.0 **** 0.06
17090 H 34.67162242420247 85.24955474000512 94.75969018726266 H 0.0 **** 0.06
17091 C 55.28783648717854 115.31598798070462 100.38307417918094 C 0.0 **** -0.24
17092 H 56.22886750192458 115.44727934016942 99.84875706461773 H 0.0 **** 0.06
17093 H 55.262461421081355 114.32364271106812 100.83398386730491 H 0.0 **** 0.06
17094 H 54.45685820156447 115.42004862288292 99.68645374714015 H 0.0 **** 0.06
17095 H 55.20433877159164 116.07261872602186 101.16379219764539 H 0.0 **** 0.06
17096 C 57.56475095141084 203.17156740734174 232.74278829184263 C 0.0 **** -0.24
17097 H 57.17468271830384 204.1891463912708 232.76603382055848 H 0.0 **** 0.06
17098 H 58.64805179490082 203.19540063359443 232.86092731382047 H 0.0 **** 0.06
17099 H 57.31364323491516 202.70727300858778 231.78949600291827 H 0.0 **** 0.06
17100 H 57.12326317011113 202.59471463003885 233.5554198078023 H 0.0 **** 0.06
17101 C 221.50272351435143 242.54231846437384 85.68862216507074 C 0.0 **** -0.24
17102 H 222.52467601925045 242.29376817493127 85.97545557258186 H 0.0 **** 0.06
17103 H 221.49999448219643 242.96063391005094 84.6824440981251 H 0.0 **** 0.06
17104 H 221.0972197305881 243.27384275400226 86.38749587537308 H 0.0 **** 0.06
17105 H 220.88977128925268 241.64139640803938 85.71022273520089 H 0.0 **** 0.06
17106 C 192.37014845499164 165.8489741570537 101.5374803448139 C 0.0 **** -0.24
17107 H 192.50244010699436 165.32932802577798 102.48666493688953 H 0.0 **** 0.06
17108 H 192.11961593895103 165.12754297170073 100.75984928147295 H 0.0 **** 0.06
17109 H 193.29424251168376 166.3625267727508 101.27281933382477 H 0.0 **** 0.06
17110 H 191.56477678043382 166.57806176925976 101.63211278521834 H 0.0 **** 0.06
17111 C 140.7025827612331 179.94407662963027 121.76881205538226 C 0.0 **** -0.24
17112 H 141.76916372965042 179.82756007035016 121.57587035136353 H 0.0 **** 0.06
17113 H 140.4685130813894 179.55114418608065 122.75852921442043 H 0.0 **** 0.06
17114 H 140.13565148605176 179.39756326338951 121.01626662662812 H 0.0 **** 0.06
17115 H 140.43932635745483 181.00172173819323 121.72545913446956 H 0.0 **** 0.06
17116 C 244.7883358417834 82.15006985387117 138.25027165032392 C 0.0 **** -0.24
17117 H 244.0096888008187 82.1622603717623 137.48784608522195 H 0.0 **** 0.06
17118 H 244.83470847824137 81.16008242059561 138.70518487282618 H 0.0 **** 0.06
17119 H 244.55886909089992 82.89236378821874 139.01556656490962 H 0.0 **** 0.06
17120 H 245.748722206715 82.38544840764936 137.7928751873193 H 0.0 **** 0.06
17121 C 34.461621810259814 115.72095425956772 92.1766155027021 C 0.0 **** -0.24
17122 H 34.04073123638409 114.85320876524355 92.68609608773588 H 0.0 **** 0.06
17123 H 33.74698387345329 116.09147818445058 91.44179701629284 H 0.0 **** 0.06
17124 H 35.38528718174375 115.43313344954441 91.67357570199604 H 0.0 **** 0.06
17125 H 34.67327779266786 116.50301681064096 92.9052721249515 H 0.0 **** 0.06
17126 C 238.75303654923874 169.4159109829697 197.1813474422682 C 0.0 **** -0.24
17127 H 238.0737256079871 169.98459489914578 196.5458572192341 H 0.0 **** 0.06
17128 H 239.40054190590695 168.79743414966845 196.55944890310298 H 0.0 **** 0.06
17129 H 238.17574303648593 168.77897060025617 197.851228561685 H 0.0 **** 0.06
17130 H 239.36152465106233 170.10323102637946 197.7693865229142 H 0.0 **** 0.06
17131 C 209.16944636319568 23.34268001345845 66.30686378278855 C 0.0 **** -0.24
17132 H 209.68853095314017 22.731191385854927 65.56823706788538 H 0.0 **** 0.06
17133 H 208.14061724682205 22.994448661154948 66.40553068268193 H 0.0 **** 0.06
17134 H 209.1713158303585 24.383078140670392 65.98359176159539 H 0.0 **** 0.06
17135 H 209.67498414076366 23.25896325698632 67.26857768153243 H 0.0 **** 0.06
17136 C 212.55753619324582 92.94388160551046 135.39427094607638 C 0.0 **** -0.24
17137 H 211.65230662124472 93.08611841666968 135.98553881425704 H 0.0 **** 0.06
17138 H 212.6859492077145 91.88339516351098 135.17807388141813 H 0.0 **** 0.06
17139 H 213.41841694967093 93.30795294458304 135.95433607164398 H 0.0 **** 0.06
17140 H 212.47123692624095 93.49723551006426 134.45970502986387 H 0.0 **** 0.06
17141 C 147.29930023066575 62.4846595508744 14.03377939417922 C 0.0 **** -0.24
17142 H 148.13648884890895 62.40830545647137 14.72705483109766 H 0.0 **** 0.06
17143 H 146.91403577361513 61.48775288049984 13.818537756932812 H 0.0 **** 0.06
17144 H 147.63474575435274 62.95271126140398 13.108014050708164 H 0.0 **** 0.06
17145 H 146.51066547600615 63.09024021254649 14.48099954199742 H 0.0 **** 0.06
17146 C 161.34467271547243 121.8660244389458 186.22972361755268 C 0.0 **** -0.24
17147 H 161.82018168666758 122.8353072598131 186.38332899293624 H 0.0 **** 0.06
17148 H 161.37295474446017 121.61240010400289 185.16986164737534 H 0.0 **** 0.06
17149 H 160.3083987193243 121.9130820595557 186.56506725995592 H 0.0 **** 0.06
17150 H 161.87774656667816 121.10624100774547 186.80086105403387 H 0.0 **** 0.06
17151 C 42.12957480706034 52.340033471600094 3.292495307020758 C 0.0 **** -0.24
17152 H 41.63884932334365 52.33306122693145 2.3198800469100007 H 0.0 **** 0.06
17153 H 41.964031472954744 53.30288245860592 3.7765787799781094 H 0.0 **** 0.06
17154 H 43.19966177231268 52.17790331545436 3.1607179398356777 H 0.0 **** 0.06
17155 H 41.71626825591564 51.54540597737147 3.913785425041425 H 0.0 **** 0.06
17156 C 211.78507185436672 29.088610310077968 41.342659009835074 C 0.0 **** -0.24
17157 H 211.6371139003924 29.694128349670507 42.23669084039109 H 0.0 **** 0.06
17158 H 211.60623539335324 29.697455859209015 40.45674412628135 H 0.0 **** 0.06
17159 H 211.08969845234952 28.248629921926522 41.354207146562615 H 0.0 **** 0.06
17160 H 212.80811467945188 28.712281214946984 41.325328011065096 H 0.0 **** 0.06
17161 C 8.322187618559482 146.9564921940247 75.6218717411642 C 0.0 **** -0.24
17162 H 8.730686914522892 146.04898547507594 75.1786681341082 H 0.0 **** 0.06
17163 H 8.62280885512098 147.8192738727644 75.02796921548773 H 0.0 **** 0.06
17164 H 8.70081405993615 147.0653375874195 76.63886155459934 H 0.0 **** 0.06
17165 H 7.233930949876125 146.8917571330973 75.64487984767001 H 0.0 **** 0.06
17166 C 110.33300214043135 218.8942664137256 174.47602137394108 C 0.0 **** -0.24
17167 H 110.91469189735696 218.0238697482534 174.1747121852098 H 0.0 **** 0.06
17168 H 110.98781896523903 219.7640974358481 174.54094827592326 H 0.0 **** 0.06
17169 H 109.87915586028495 218.70773918327592 175.44997041134263 H 0.0 **** 0.06
17170 H 109.55148681685165 219.08099917300055 173.74034125827708 H 0.0 **** 0.06
17171 C 236.28113193776994 201.45281619564298 152.69555423837363 C 0.0 **** -0.24
17172 H 235.2870894671182 201.8552884242776 152.49825940874365 H 0.0 **** 0.06
17173 H 236.37780390835388 200.4760146596853 152.2204901701399 H 0.0 **** 0.06
17174 H 236.42435050887173 201.34969896945725 153.77072531230198 H 0.0 **** 0.06
17175 H 237.03331112875378 202.13051174472335 152.29171915234895 H 0.0 **** 0.06
17176 C 87.07793020855217 109.5363658668065 46.02505729018489 C 0.0 **** -0.24
17177 H 87.71188352323725 108.7009579474597 46.319243209403254 H 0.0 **** 0.06
17178 H 86.04809623579354 109.3332550555464 46.32099743365336 H 0.0 **** 0.06
17179 H 87.12629256182814 109.66742404550399 44.94364829540527 H 0.0 **** 0.06
17180 H 87.4256346889847 110.44539612567493 46.51704830977829 H 0.0 **** 0.06
17181 C 230.47352746096377 177.28516451623585 96.39600956979413 C 0.0 **** -0.24
17182 H 229.7455782709575 177.54473432157283 95.62596211477327 H 0.0 **** 0.06
17183 H 231.41724664830198 177.78939637608414 96.18795694088223 H 0.0 **** 0.06
17184 H 230.6305384039718 176.20661355502844 96.39698690504926 H 0.0 **** 0.06
17185 H 230.09912356776272 177.59975701680253 97.36976459290074 H 0.0 **** 0.06
17186 C 11.162146531511297 181.25597186278574 122.25116273973839 C 0.0 **** -0.24
17187 H 11.229019442039004 180.74728131492708 123.21351533710606 H 0.0 **** 0.06
17188 H 11.610543525392103 182.24662178116478 122.33246743485057 H 0.0 **** 0.06
17189 H 10.115449248832505 181.35245715416784 121.96371196084186 H 0.0 **** 0.06
17190 H 11.694989922954932 180.67639667670582 121.49660452230646 H 0.0 **** 0.06
17191 C 219.2951849705898 81.22257591379122 71.08569547911156 C 0.0 **** -0.24
17192 H 219.95845875924954 80.78712573960814 70.33789831247165 H 0.0 **** 0.06
17193 H 219.08414250148772 82.25878225286604 70.82325489773493 H 0.0 **** 0.06
17194 H 219.77757869039135 81.1850772751348 72.06271273883578 H 0.0 **** 0.06
17195 H 218.36388432662685 80.65709027724364 71.11792395670656 H 0.0 **** 0.06
17196 C 126.50460565165179 61.480894718202904 226.34290279528963 C 0.0 **** -0.24
17197 H 126.16000648414564 60.502327921621315 226.67714822463205 H 0.0 **** 0.06
17198 H 127.58116449505698 61.44941848163114 226.1788940752328 H 0.0 **** 0.06
17199 H 126.27416595692736 62.22558956368124 227.1049340976769 H 0.0 **** 0.06
17200 H 126.00154812783282 61.744576949618136 225.41361147451136 H 0.0 **** 0.06
17201 C 243.75340303692815 85.81802483661048 56.343846897924124 C 0.0 **** -0.24
17202 H 243.99333269010967 84.85375254627311 55.897236028761 H 0.0 **** 0.06
17203 H 243.35102048387472 86.48263875604306 55.578130105569045 H 0.0 **** 0.06
17204 H 244.6566833217157 86.2567683298538 56.76741559432219 H 0.0 **** 0.06
17205 H 243.0121575329822 85.67981818459106 57.13157946845652 H 0.0 **** 0.06
17206 C 106.7449948924581 180.42890358974057 132.10000221116297 C 0.0 **** -0.24
17207 H 106.55827292432426 181.1270918810024 132.91601727639525 H 0.0 **** 0.06
17208 H 107.5326517799522 180.82325002304566 131.45866838342766 H 0.0 **** 0.06
17209 H 105.83286973931791 180.2972760926676 131.51783172305298 H 0.0 **** 0.06
17210 H 107.0564740193239 179.4671273538996 132.50896162996045 H 0.0 **** 0.06
17211 C 4.430463671475735 238.9923466514251 226.25701877578075 C 0.0 **** -0.24
17212 H 4.695076200555349 238.63471921852494 227.25220740103657 H 0.0 **** 0.06
17213 H 3.744477261737728 238.28585042868093 225.78829890772226 H 0.0 **** 0.06
17214 H 5.331028723365904 239.08113985764652 225.65083241337808 H 0.0 **** 0.06
17215 H 3.9490567420910168 239.96676437032335 226.33724372428472 H 0.0 **** 0.06
17216 C 147.48155716665028 1.420428560641497 119.2332087261685 C 0.0 **** -0.24
17217 H 146.62266779652583 1.2241273318052066 119.87499252666964 H 0.0 **** 0.06
17218 H 147.26390299624396 1.0773285323541302 118.22134825652637 H 0.0 **** 0.06
17219 H 148.35239126552585 0.889101829062426 119.61769988264146 H 0.0 **** 0.06
17220 H 147.68671192106507 2.4904896426317293 119.21829667754395 H 0.0 **** 0.06
17221 C 212.27075147879182 233.63594355395827 244.22088823439952 C 0.0 **** -0.24
17222 H 212.81841657614189 232.8332965296593 244.71478930215326 H 0.0 **** 0.06
17223 H 212.77604457175477 234.5853773503444 244.40219168246404 H 0.0 **** 0.06
17224 H 211.2568639316572 233.68230503792302 244.61885836829146 H 0.0 **** 0.06
17225 H 212.23154084001672 233.4439714145021 243.14848635274066 H 0.0 **** 0.06
17226 C 97.3218939879483 37.1889627846311 126.71801653959321 C 0.0 **** -0.24
17227 H 96.85994298783413 36.88938207367883 127.65852557001091 H 0.0 **** 0.06
17228 H 98.2013655572552 36.57223733726242 126.53296235822378 H 0.0 **** 0.06
17229 H 97.61785747228149 38.23606450424188 126.77589716343755 H 0.0 **** 0.06
17230 H 96.6084099344223 37.058167223341314 125.90468106670062 H 0.0 **** 0.06
17231 C 68.29283061886844 143.98666188934726 92.45090158104807 C 0.0 **** -0.24
17232 H 69.3703189509595 144.1152674507015 92.3550002809352 H 0.0 **** 0.06
17233 H 68.06954417953793 143.46832190491205 93.38323435020058 H 0.0 **** 0.06
17234 H 67.92146719614658 143.39895885993738 91.61051896543748 H 0.0 **** 0.06
17235 H 67.80839195617301 144.96279589594664 92.45267545870922 H 0.0 **** 0.06
17236 C 165.43761739300407 171.63238099235176 229.43194658622375 C 0.0 **** -0.24
17237 H 165.05802161341472 171.45337853385095 228.42565550537756 H 0.0 **** 0.06
17238 H 164.98682203073565 172.53969562882747 229.83393198412696 H 0.0 **** 0.06
17239 H 166.52138799194944 171.74918023818347 229.39517964172606 H 0.0 **** 0.06
17240 H 165.18525765939216 170.78609302008934 230.07045484524292 H 0.0 **** 0.06
17241 C 177.8511132633962 147.44128442931282 168.73701304245736 C 0.0 **** -0.24
17242 H 178.5457405917758 146.62636467257755 168.93942902170136 H 0.0 **** 0.06
17243 H 177.1350953959082 147.52096742797238 169.55507575626697 H 0.0 **** 0.06
17244 H 177.31898632728692 147.24182730698092 167.80605151577632 H 0.0 **** 0.06
17245 H 178.40407652533764 148.37553001247744 168.64515238816048 H 0.0 **** 0.06
17246 C 59.23635807353102 74.31663086643727 217.82318620669238 C 0.0 **** -0.24
17247 H 58.667116308291185 74.46110744374826 216.90532897746175 H 0.0 **** 0.06
17248 H 58.74558890279363 73.5616562079633 218.43896171273866 H 0.0 **** 0.06
17249 H 59.28701858276722 75.25656634212433 218.37207815949944 H 0.0 **** 0.06
17250 H 60.24479066105974 73.9843383296298 217.57629967922975 H 0.0 **** 0.06
17251 C 113.77318651818797 68.05711599881798 180.76363833131694 C 0.0 **** -0.24
17252 H 114.30938215738223 67.34225965646723 181.38845128195908 H 0.0 **** 0.06
17253 H 112.90850239035194 67.57003900258488 180.3138795969624 H 0.0 **** 0.06
17254 H 114.43549257905804 68.42070339625431 179.97875589211762 H 0.0 **** 0.06
17255 H 113.44116986751922 68.89609649484734 181.37598729202023 H 0.0 **** 0.06
17256 C 244.57752583719423 129.30438769054788 189.22009612386756 C 0.0 **** -0.24
17257 H 244.55441476178538 128.26917349394293 189.56056934544142 H 0.0 **** 0.06
17258 H 244.07027164158418 129.38173617586583 188.25818554258768 H 0.0 **** 0.06
17259 H 245.613082076535 129.62829931957978 189.11231343193043 H 0.0 **** 0.06
17260 H 244.07291422926477 129.93866753351384 189.94856902677543 H 0.0 **** 0.06
17261 C 99.53261295019834 153.07221215943144 51.468727286407926 C 0.0 **** -0.24
17262 H 100.42729018026819 153.09397621469157 50.84698252932671 H 0.0 **** 0.06
17263 H 99.71623485628518 152.4541385153349 52.34873214717683 H 0.0 **** 0.06
17264 H 98.70350748932293 152.65607525602812 50.89821544461185 H 0.0 **** 0.06
17265 H 99.28506349001583 154.08611019080354 51.78302589493089 H 0.0 **** 0.06
17266 C 145.98302539745524 89.64270382010503 213.38665113140348 C 0.0 **** -0.24
17267 H 146.76497646288945 89.56965691302966 212.63157349418623 H 0.0 **** 0.06
17268 H 146.17027605894427 88.91310038437575 214.17443764075534 H 0.0 **** 0.06
17269 H 145.0148160475981 89.44064623824255 212.92692515634818 H 0.0 **** 0.06
17270 H 145.98131618406006 90.64628251981196 213.81187629533116 H 0.0 **** 0.06
17271 C 23.357091461741433 119.59955671039029 12.743780081393965 C 0.0 **** -0.24
17272 H 23.558917941547975 120.58313429695642 12.319630612564865 H 0.0 **** 0.06
17273 H 24.23899510195521 119.24705012082231 13.279692064456583 H 0.0 **** 0.06
17274 H 23.11493010094601 118.90139930072462 11.942256731987058 H 0.0 **** 0.06
17275 H 22.515522702516535 119.66664312305792 13.433540916567495 H 0.0 **** 0.06
17276 C 202.43363021555876 222.32473677842682 241.24457625147812 C 0.0 **** -0.24
17277 H 202.249992577331 223.11898457151466 240.5214288086047 H 0.0 **** 0.06
17278 H 203.49557548635255 222.07788613349703 241.25216413707483 H 0.0 **** 0.06
17279 H 201.85700969171666 221.4413124326452 240.96909889709082 H 0.0 **** 0.06
17280 H 202.13146178921835 222.66044257654124 242.2369035333149 H 0.0 **** 0.06
17281 C 153.13880460942116 120.3513534259771 13.28740994040217 C 0.0 **** -0.24
17282 H 153.28958317558659 119.92628201662905 14.279648666002942 H 0.0 **** 0.06
17283 H 152.97600612735317 121.42528262253808 13.372892655837262 H 0.0 **** 0.06
17284 H 152.2687256213299 119.88719576427823 12.821398348639903 H 0.0 **** 0.06
17285 H 154.0209957079648 120.16428399873416 12.67508530018246 H 0.0 **** 0.06
17286 C 27.482785516119947 19.131129938547048 159.8778610116178 C 0.0 **** -0.24
17287 H 27.558196297010767 18.376692540729977 159.09514331654518 H 0.0 **** 0.06
17288 H 26.544015030403926 19.674481990165845 159.77003201434957 H 0.0 **** 0.06
17289 H 28.317490059942855 19.82625403899985 159.793106254202 H 0.0 **** 0.06
17290 H 27.511336697874697 18.6453696343535 160.853322096383 H 0.0 **** 0.06
17291 C 136.76873040326456 170.50308070681933 223.922091146026 C 0.0 **** -0.24
17292 H 136.98901733322248 171.12818647818372 223.05732123299094 H 0.0 **** 0.06
17293 H 137.67839142863215 169.99459305528904 224.24336471712775 H 0.0 **** 0.06
17294 H 136.01445487624065 169.76356537093642 223.65296465577734 H 0.0 **** 0.06
17295 H 136.39334209052942 171.12470662943826 224.73416342318262 H 0.0 **** 0.06
17296 C 213.98827753289862 235.16991373541194 163.15748611760966 C 0.0 **** -0.24
17297 H 214.320594460716 234.3622705225636 163.8090729969616 H 0.0 **** 0.06
17298 H 214.68195231164918 235.27268022231712 162.3229833195807 H 0.0 **** 0.06
17299 H 213.95609035159006 236.10227081713157 163.7216969221891 H 0.0 **** 0.06
17300 H 212.9923508262628 234.94235938105874 162.77549057551198 H 0.0 **** 0.06
17301 C 71.92398154536156 18.643567364172043 7.820237154608051 C 0.0 **** -0.24
17302 H 71.03011172451579 18.647494563335044 8.443800212428286 H 0.0 **** 0.06
17303 H 72.65314945111476 17.94857461394355 8.23544409291354 H 0.0 **** 0.06
17304 H 72.35179539151457 19.646575053893898 7.79286065068186 H 0.0 **** 0.06
17305 H 71.6601059986834 18.33359691522749 6.8095712471497905 H 0.0 **** 0.06
17306 C 184.84795790833797 200.53538313896254 65.84079024852207 C 0.0 **** -0.24
17307 H 185.02505087475265 201.15353713621013 66.72093074082517 H 0.0 **** 0.06
17308 H 185.798973830212 200.31223581441543 65.35623729387916 H 0.0 **** 0.06
17309 H 184.2015953796873 201.07065343900533 65.14508646209453 H 0.0 **** 0.06
17310 H 184.3653668646187 199.60451416489664 66.14187400062877 H 0.0 **** 0.06
17311 C 99.49835585149722 192.26789186931464 201.56252421963615 C 0.0 **** -0.24
17312 H 98.91977190881957 191.61365251827482 202.21515816595533 H 0.0 **** 0.06
17313 H 99.09158689788049 192.2256117986102 200.55230841103293 H 0.0 **** 0.06
17314 H 100.53791751202002 191.93999803161756 201.54949514238598 H 0.0 **** 0.06
17315 H 99.44464560598661 193.29072166780327 201.93362928436898 H 0.0 **** 0.06
17316 C 126.05543325278353 108.67822324907357 146.58666642372194 C 0.0 **** -0.24
17317 H 127.13413179778942 108.55874129947875 146.6855606972497 H 0.0 **** 0.06
17318 H 125.69033580835054 108.03571250829597 145.78561688085446 H 0.0 **** 0.06
17319 H 125.82489542899725 109.71800822199415 146.35288640055327 H 0.0 **** 0.06
17320 H 125.57120267339849 108.4011953653818 147.52362793659879 H 0.0 **** 0.06
17321 C 182.20375105577202 94.93975742800035 24.598530599906553 C 0.0 **** -0.24
17322 H 181.86480594132158 94.07288185732972 24.031929755824606 H 0.0 **** 0.06
17323 H 182.04240143327044 94.76389619012721 25.662555366155672 H 0.0 **** 0.06
17324 H 181.64304746879597 95.82013652941441 24.285543878591895 H 0.0 **** 0.06
17325 H 183.26622375824851 95.10043415551866 24.414117150451276 H 0.0 **** 0.06
17326 C 185.56984690420822 99.44298220536757 216.41859508974616 C 0.0 **** -0.24
17327 H 185.71050026914037 98.37139963037907 216.272044760309 H 0.0 **** 0.06
17328 H 184.69702225878922 99.61119524481532 217.04906085084906 H 0.0 **** 0.06
17329 H 185.41960185675612 99.92482704741863 215.4529121526175 H 0.0 **** 0.06
17330 H 186.45389853837912 99.86117123353162 216.90080896578212 H 0.0 **** 0.06
17331 C 137.98437008218696 52.17466000196008 247.89796113921318 C 0.0 **** -0.24
17332 H 137.96775752067555 53.10914407930012 248.45833609915957 H 0.0 **** 0.06
17333 H 138.61218943740235 51.44989697550426 248.41645027447 H 0.0 **** 0.06
17334 H 138.3859460360695 52.356778804287245 246.9013538645994 H 0.0 **** 0.06
17335 H 136.97046559862102 51.782985002703725 247.8148590074144 H 0.0 **** 0.06
17336 C 189.48477680194532 121.6353273477844 246.3702186566593 C 0.0 **** -0.24
17337 H 189.38867242429023 120.55256500385784 246.29708717859245 H 0.0 **** 0.06
17338 H 188.85911455304796 122.0018389583015 247.1852680895546 H 0.0 **** 0.06
17339 H 189.16517435279923 122.092405088313 245.4332689297118 H 0.0 **** 0.06
17340 H 190.52531681374842 121.89564592316259 246.56526812833346 H 0.0 **** 0.06
17341 C 8.145184502707323 244.35290755489507 42.251952799406055 C 0.0 **** -0.24
17342 H 7.648542541901733 243.470993353653 42.655629237209794 H 0.0 **** 0.06
17343 H 7.620634088082426 244.68574937118083 41.35637993482041 H 0.0 **** 0.06
17344 H 9.175721631061464 244.10554422909 41.99793473417411 H 0.0 **** 0.06
17345 H 8.134659988097994 245.14926366453074 42.99596943085784 H 0.0 **** 0.06
17346 C 169.17429470194205 201.78033576880784 170.70592308903306 C 0.0 **** -0.24
17347 H 169.28881033613138 200.71616773432532 170.4972747180993 H 0.0 **** 0.06
17348 H 168.2213315475375 201.95192350303222 171.20632237328175 H 0.0 **** 0.06
17349 H 169.19902735840654 202.33861298785786 169.769660615714 H 0.0 **** 0.06
17350 H 169.98889363999163 202.11382964672222 171.34968390131746 H 0.0 **** 0.06
17351 C 141.23186674302474 0.2533421973451766 136.34523794961706 C 0.0 **** -0.24
17352 H 142.00089677092112 -0.4889846985455506 136.13057270063567 H 0.0 **** 0.06
17353 H 141.54549030136076 0.8682068725152305 137.18902244031517 H 0.0 **** 0.06
17354 H 140.2983357259574 -0.2523207487340642 136.59179705584708 H 0.0 **** 0.06
17355 H 141.08203712378932 0.8858125666538683 135.4698266787772 H 0.0 **** 0.06
17356 C 142.67764021611032 7.172992734850993 20.584274980520632 C 0.0 **** -0.24
17357 H 142.8778840709839 7.266676945133071 19.516800278688976 H 0.0 **** 0.06
17358 H 143.0104413386547 8.076619955717291 21.095683657366322 H 0.0 **** 0.06
17359 H 143.2162470570992 6.31217227576883 20.979536121665078 H 0.0 **** 0.06
17360 H 141.60807452681667 7.037074371003854 20.742565845216603 H 0.0 **** 0.06
17361 C 246.48858263347114 236.22007856596093 193.83052207093343 C 0.0 **** -0.24
17362 H 246.8540446700629 237.2285279812003 193.63887698863743 H 0.0 **** 0.06
17363 H 247.22772439008165 235.49501568220666 193.48932293434973 H 0.0 **** 0.06
17364 H 245.55254108452124 236.06500638906147 193.29278196629372 H 0.0 **** 0.06
17365 H 246.31844297393735 236.09237092770127 194.89883841424344 H 0.0 **** 0.06
17366 C 80.78464094242537 96.03611490930365 218.8025223496433 C 0.0 **** -0.24
17367 H 81.3513348782169 96.57260807703707 218.04318934736756 H 0.0 **** 0.06
17368 H 79.79426343331633 96.4806807939359 218.899713558456 H 0.0 **** 0.06
17369 H 81.30688258865936 96.09937480070985 219.7577047552375 H 0.0 **** 0.06
17370 H 80.68664187712241 94.99029359677584 218.51104072670273 H 0.0 **** 0.06
17371 C 245.91166021513675 22.324196922895197 162.1336409318254 C 0.0 **** -0.24
17372 H 245.23348347419127 21.788441080534284 162.79798689329806 H 0.0 **** 0.06
17373 H 246.42433343172166 23.10762287255838 162.6921349133225 H 0.0 **** 0.06
17374 H 245.34351270885105 22.77069151304184 161.3182958823091 H 0.0 **** 0.06
17375 H 246.64626847376073 21.628433488895695 161.72687253337602 H 0.0 **** 0.06
17376 C 137.50786583707244 173.13957535765311 192.29772085841853 C 0.0 **** -0.24
17377 H 138.4949955934588 173.49193638020574 192.59631442730446 H 0.0 **** 0.06
17378 H 136.9232792480644 172.90006297464322 193.1858035710246 H 0.0 **** 0.06
17379 H 137.61198296154348 172.24900087014655 191.67916022208044 H 0.0 **** 0.06
17380 H 137.00144212519425 173.92028775571148 191.72944825439245 H 0.0 **** 0.06
17381 C 134.84344053705766 9.963421373287233 121.65137929624072 C 0.0 **** -0.24
17382 H 134.90783561233678 10.769284781176466 122.38195030805977 H 0.0 **** 0.06
17383 H 134.31111580728023 9.118239131547696 122.08864230307935 H 0.0 **** 0.06
17384 H 135.84723992785322 9.651601464333964 121.363739432176 H 0.0 **** 0.06
17385 H 134.30537868461533 10.313781927721536 120.77041760787401 H 0.0 **** 0.06
17386 C 227.45173859105012 138.62490035469216 77.73950326388731 C 0.0 **** -0.24
17387 H 227.51092641454852 137.55913611338605 77.95613413625631 H 0.0 **** 0.06
17388 H 228.40559785508282 139.09761256251537 77.97531939977404 H 0.0 **** 0.06
17389 H 226.6635591428947 139.07527827641087 78.34339436376126 H 0.0 **** 0.06
17390 H 227.22681092267413 138.76898740962164 76.68316239799287 H 0.0 **** 0.06
17391 C 20.889623964515152 175.57757501107483 10.519878313002707 C 0.0 **** -0.24
17392 H 20.579610082481253 176.6086805065948 10.34593742324195 H 0.0 **** 0.06
17393 H 21.160442030656256 175.1149716988091 9.570318242018033 H 0.0 **** 0.06
17394 H 20.067738581634885 175.02340112930722 10.973486401311817 H 0.0 **** 0.06
17395 H 21.74944691331575 175.56493690624944 11.18902279320146 H 0.0 **** 0.06
17396 C 190.57499260241082 168.61299346173408 45.623641457416994 C 0.0 **** -0.24
17397 H 191.02036155901476 167.66684846613902 45.315976526328456 H 0.0 **** 0.06
17398 H 190.77209728841387 168.77898114458046 46.68311463243239 H 0.0 **** 0.06
17399 H 189.49923684741134 168.57971768337617 45.454009981067 H 0.0 **** 0.06
17400 H 191.00996787700086 169.42504511987806 45.04099046054009 H 0.0 **** 0.06
17401 C 234.71584528326952 117.1357639087538 244.33082725074672 C 0.0 **** -0.24
17402 H 234.32029645102028 116.14639880981355 244.56351460415524 H 0.0 **** 0.06
17403 H 234.40867830833264 117.83932872141921 245.1037402858068 H 0.0 **** 0.06
17404 H 234.32762313678103 117.46372387408078 243.3653836132874 H 0.0 **** 0.06
17405 H 235.80332827229523 117.09133044963247 244.28929451700367 H 0.0 **** 0.06
17406 C 19.525340860483254 149.134004188856 156.02295462739116 C 0.0 **** -0.24
17407 H 20.414849774697714 149.03087184610865 156.6441455617592 H 0.0 **** 0.06
17408 H 19.77955563907973 148.91781345544285 154.98620346929297 H 0.0 **** 0.06
17409 H 19.14511711400324 150.15272854910077 156.10061512192897 H 0.0 **** 0.06
17410 H 18.76190704927589 148.4349880673817 156.36414789313602 H 0.0 **** 0.06
17411 C 101.04484348797192 191.1132840457404 85.85630768654735 C 0.0 **** -0.24
17412 H 100.04355750431793 191.48209977674864 85.63636475404277 H 0.0 **** 0.06
17413 H 101.18000528794474 190.13402176967665 85.39613786995798 H 0.0 **** 0.06
17414 H 101.17191386315957 191.0288996642086 86.93508196990345 H 0.0 **** 0.06
17415 H 101.78342964742572 191.80823963695622 85.45598308514334 H 0.0 **** 0.06
17416 C 59.45935570337849 20.099162943564124 108.43663488900702 C 0.0 **** -0.24
17417 H 58.93065252945627 20.161483491697595 109.38770095958881 H 0.0 **** 0.06
17418 H 60.52333544192598 20.26791856530876 108.60056846810693 H 0.0 **** 0.06
17419 H 59.07193464386211 20.85808099503815 107.7555762276028 H 0.0 **** 0.06
17420 H 59.31051898078087 19.111157281428433 108.00165327452032 H 0.0 **** 0.06
17421 C 182.48575546969306 153.4120189378468 209.5603506502348 C 0.0 **** -0.24
17422 H 182.2139408382198 152.5254922870839 208.98656246471643 H 0.0 **** 0.06
17423 H 181.58792539576746 153.98844305943683 209.7843215492066 H 0.0 **** 0.06
17424 H 183.17502303787955 154.02347094793967 208.97845184231082 H 0.0 **** 0.06
17425 H 182.9659375141518 153.10881989971924 210.4908253238897 H 0.0 **** 0.06
17426 C 187.24903435702868 175.5382230413547 219.54829183499533 C 0.0 **** -0.24
17427 H 188.11194001109033 175.4933147157291 218.88457003013147 H 0.0 **** 0.06
17428 H 186.3568941587983 175.22792187273024 219.004288506995 H 0.0 **** 0.06
17429 H 187.12002120110338 176.55934245653725 219.90685607274492 H 0.0 **** 0.06
17430 H 187.40792572943337 174.87286195217683 220.39631937705957 H 0.0 **** 0.06
17431 C 193.44264269130701 81.78702353282591 32.317744017303 C 0.0 **** -0.24
17432 H 193.09586313208598 81.24402542362455 33.19685638679627 H 0.0 **** 0.06
17433 H 193.19521820989448 82.84389795113975 32.42236795887726 H 0.0 **** 0.06
17434 H 192.95584912351816 81.38638067636097 31.427954208558077 H 0.0 **** 0.06
17435 H 194.52241490162845 81.67337524511098 32.22322626123979 H 0.0 **** 0.06
17436 C 90.2251127554253 224.12277673724432 86.79568465228007 C 0.0 **** -0.24
17437 H 91.2141399291767 224.09847281977846 86.33768122170548 H 0.0 **** 0.06
17438 H 90.3276697288083 224.2655668928026 87.8719497771205 H 0.0 **** 0.06
17439 H 89.71108214307034 223.18111075341358 86.60140835577513 H 0.0 **** 0.06
17440 H 89.64821445511939 224.94540101027957 86.37282270337656 H 0.0 **** 0.06
17441 C 15.090267674704464 18.117212903874815 163.354410941003 C 0.0 **** -0.24
17442 H 14.148542208939261 17.675653244819472 163.68053022039138 H 0.0 **** 0.06
17443 H 15.89788096360175 17.766029771534846 163.99627988944292 H 0.0 **** 0.06
17444 H 15.022419665419392 19.203384770942847 163.41573705437753 H 0.0 **** 0.06
17445 H 15.291052870086077 17.823504310307897 162.32436087844746 H 0.0 **** 0.06
17446 C 39.15299003134908 100.47146643450861 172.44588123920104 C 0.0 **** -0.24
17447 H 38.76979431474673 99.45383463723124 172.3753182879613 H 0.0 **** 0.06
17448 H 38.5841648296325 101.12021050564408 171.77886879469324 H 0.0 **** 0.06
17449 H 40.204013891905504 100.4857043436723 172.1582100888802 H 0.0 **** 0.06
17450 H 39.05303107726107 100.82694434991089 173.47176048884663 H 0.0 **** 0.06
17451 C 7.2223054979982635 93.56713400232246 136.43352664709042 C 0.0 **** -0.24
17452 H 8.00317079121406 92.84899792031518 136.68363768218194 H 0.0 **** 0.06
17453 H 6.259235250865686 93.05785781085441 136.39818504168773 H 0.0 **** 0.06
17454 H 7.435556610640774 94.01190831411037 135.46121941723848 H 0.0 **** 0.06
17455 H 7.192408209885784 94.34925897044425 137.1917101665354 H 0.0 **** 0.06
17456 C 53.020932543713855 48.6400564789172 24.055840107418078 C 0.0 **** -0.24
17457 H 52.164933468120964 49.24495801365835 24.356459956674428 H 0.0 **** 0.06
17458 H 52.77700006822553 48.09490879176333 23.143917129586683 H 0.0 **** 0.06
17459 H 53.263185742482634 47.933767704707776 24.849672659189267 H 0.0 **** 0.06
17460 H 53.87773272429203 49.28874890536328 23.872553011905325 H 0.0 **** 0.06
17461 C 9.228548282597728 233.1085099900676 94.3109840291907 C 0.0 **** -0.24
17462 H 8.380164002962843 233.74739991095927 94.5543383858452 H 0.0 **** 0.06
17463 H 9.19486835843476 232.2091915715135 94.92661754167875 H 0.0 **** 0.06
17464 H 10.156351872081302 233.6473904880281 94.50499661799799 H 0.0 **** 0.06
17465 H 9.183502647054226 232.8299489166429 93.25869548663678 H 0.0 **** 0.06
17466 C 10.179885202270029 22.623128016740495 224.34894498011522 C 0.0 **** -0.24
17467 H 9.960010159773532 21.55704452930705 224.39893023296906 H 0.0 **** 0.06
17468 H 9.246021451908092 23.184639379897547 224.3212131487174 H 0.0 **** 0.06
17469 H 10.757113271733942 22.833718730253253 223.44916897084283 H 0.0 **** 0.06
17470 H 10.754271429634215 22.9170145732362 225.22768312447494 H 0.0 **** 0.06
17471 C 175.94028059951395 166.59467045002728 132.80852258399202 C 0.0 **** -0.24
17472 H 175.07421797760713 166.9710751634719 132.26453306987435 H 0.0 **** 0.06
17473 H 175.6449633056381 165.7361435086669 133.4123642551021 H 0.0 **** 0.06
17474 H 176.3300063076546 167.37890465930596 133.45806715784914 H 0.0 **** 0.06
17475 H 176.71089945776447 166.2922103916544 132.100024136788 H 0.0 **** 0.06
17476 C 91.31645351072362 176.84868390707575 101.00894564267773 C 0.0 **** -0.24
17477 H 90.89529573128809 175.95876850016717 101.47702925226784 H 0.0 **** 0.06
17478 H 90.5209298722136 177.4161825147881 100.52555962253808 H 0.0 **** 0.06
17479 H 92.05532496544512 176.5515242712633 100.26362510142292 H 0.0 **** 0.06
17480 H 91.79529219285752 177.4667509870648 101.76793652730998 H 0.0 **** 0.06
17481 C 46.319694051920095 132.73965884728892 107.63340952804924 C 0.0 **** -0.24
17482 H 46.40939188622164 131.6906576055803 107.91556597768286 H 0.0 **** 0.06
17483 H 45.888760239384936 133.30181660631865 108.46175201158465 H 0.0 **** 0.06
17484 H 45.67399584120082 132.82687612284408 106.75949332032084 H 0.0 **** 0.06
17485 H 47.306902497950745 133.1375279211073 107.39774184607882 H 0.0 **** 0.06
17486 C 197.35805392782328 147.5159009186245 222.91928042189505 C 0.0 **** -0.24
17487 H 196.91619096692457 148.3671736616023 223.4361125023582 H 0.0 **** 0.06
17488 H 198.4153127092198 147.4428026343948 223.17638174460228 H 0.0 **** 0.06
17489 H 197.2532707415864 147.64982458667396 221.8427891304184 H 0.0 **** 0.06
17490 H 196.84685341873362 146.6016618150116 223.22287304682823 H 0.0 **** 0.06
17491 C 234.836741135067 113.02577371091468 30.047214241841743 C 0.0 **** -0.24
17492 H 233.97314071892714 113.6565944886027 29.836631629624833 H 0.0 **** 0.06
17493 H 235.12920551648816 112.4960796298939 29.141239449979338 H 0.0 **** 0.06
17494 H 234.57913106474652 112.30464096415454 30.82346303610717 H 0.0 **** 0.06
17495 H 235.66537838205198 113.64622070041739 30.38947060967729 H 0.0 **** 0.06
17496 C 135.13391496790797 240.48159150562748 58.680263699602364 C 0.0 **** -0.24
17497 H 135.87683818846816 239.94065066395171 59.266240372722535 H 0.0 **** 0.06
17498 H 134.21951647472764 240.5898458046879 59.26354662500691 H 0.0 **** 0.06
17499 H 134.91991624273678 239.9288626537471 57.76587432725671 H 0.0 **** 0.06
17500 H 135.521097083498 241.46875715288922 58.425531340263944 H 0.0 **** 0.06
17501 C 180.1253780918223 36.19758146183305 6.069676339899388 C 0.0 **** -0.24
17502 H 179.10571470012297 36.22742192082076 6.453442781277204 H 0.0 **** 0.06
17503 H 180.71211787783176 35.48565054315364 6.651899131426347 H 0.0 **** 0.06
17504 H 180.5723621332542 37.187807099145616 6.149262827902575 H 0.0 **** 0.06
17505 H 180.11049888837368 35.88746119214376 5.0247243798508805 H 0.0 **** 0.06
17506 C 106.67884842777528 50.012977318588256 224.63594091745875 C 0.0 **** -0.24
17507 H 107.72742236174679 50.182659302319024 224.38906380309683 H 0.0 **** 0.06
17508 H 106.05088929448317 50.383864438209045 223.8259392882031 H 0.0 **** 0.06
17509 H 106.43368937682618 50.539320065074534 225.55792731280846 H 0.0 **** 0.06
17510 H 106.50674629586285 48.945770665142945 224.77001689864395 H 0.0 **** 0.06
17511 C 178.12563903976724 219.91471287994216 75.5674812457923 C 0.0 **** -0.24
17512 H 177.11447872422585 219.5623028558918 75.3635019290248 H 0.0 **** 0.06
17513 H 178.1225876667354 221.0018063138638 75.64517372499967 H 0.0 **** 0.06
17514 H 178.78702818247513 219.6088813593475 74.75703874389245 H 0.0 **** 0.06
17515 H 178.4771575815691 219.48347143974706 76.50497850302779 H 0.0 **** 0.06
17516 C 100.31658796682154 137.79101147411424 120.75669478306969 C 0.0 **** -0.24
17517 H 99.94431194577373 137.13616772706908 121.54372895500597 H 0.0 **** 0.06
17518 H 101.40149396957099 137.70263991765205 120.69394919568958 H 0.0 **** 0.06
17519 H 100.04897145166262 138.82282762067643 120.98571315678933 H 0.0 **** 0.06
17520 H 99.8728623080797 137.50291283098056 119.80368676589552 H 0.0 **** 0.06
17521 C 24.603478950222453 83.29194271956888 129.60610594733333 C 0.0 **** -0.24
17522 H 25.525280633017488 82.86213190067224 129.21357838039572 H 0.0 **** 0.06
17523 H 24.84241698272318 84.01690997040197 130.38438396555907 H 0.0 **** 0.06
17524 H 23.98353849144125 82.49966488989446 130.02642873170126 H 0.0 **** 0.06
17525 H 24.06217522866585 83.7869472413939 128.80054691015857 H 0.0 **** 0.06
17526 C 74.30824518829473 4.953686206969621 83.95880163253207 C 0.0 **** -0.24
17527 H 73.87871943472675 5.380989899086373 83.05188610993244 H 0.0 **** 0.06
17528 H 73.85082410849688 5.419297375655745 84.8316319494028 H 0.0 **** 0.06
17529 H 75.38350530930958 5.135476580059191 83.97069759139791 H 0.0 **** 0.06
17530 H 74.12126000241648 3.880761841125036 83.97815102354133 H 0.0 **** 0.06
17531 C 215.14969146465572 149.6988070398831 65.10692285590898 C 0.0 **** -0.24
17532 H 214.5001822419501 148.89489473958014 65.45199146271025 H 0.0 **** 0.06
17533 H 214.86864903876278 149.9821959393842 64.09197779914558 H 0.0 **** 0.06
17534 H 216.1854340713893 149.35784891820435 65.1159445292817 H 0.0 **** 0.06
17535 H 215.04433476846384 150.56000354661634 65.76683354211198 H 0.0 **** 0.06
17536 C 75.91917060474094 77.63520408779613 197.570646508317 C 0.0 **** -0.24
17537 H 76.73764452673464 78.02807274098782 198.17383821021934 H 0.0 **** 0.06
17538 H 74.97489919642857 77.79299553542899 198.09321894388052 H 0.0 **** 0.06
17539 H 76.06956252684915 76.56939064573294 197.40546017799957 H 0.0 **** 0.06
17540 H 75.89402964258241 78.15224320863516 196.61153335220274 H 0.0 **** 0.06
17541 C 56.135153411860784 102.36055219728127 198.88968200981608 C 0.0 **** -0.24
17542 H 56.96746877725664 101.66854767402054 198.76130583859597 H 0.0 **** 0.06
17543 H 55.20316410818097 101.79980191605893 198.95346773987117 H 0.0 **** 0.06
17544 H 56.09378448064737 103.03974510473472 198.03792959339134 H 0.0 **** 0.06
17545 H 56.278206538328305 102.93470915296365 199.8047580483425 H 0.0 **** 0.06
17546 C 87.16329959534133 233.89865255089455 121.09253048046327 C 0.0 **** -0.24
17547 H 88.1845995268867 233.80240572319548 120.72404090526805 H 0.0 **** 0.06
17548 H 86.49492126876905 233.30277880938962 120.47105042034417 H 0.0 **** 0.06
17549 H 86.86090778327642 234.9446155810422 121.05291873534833 H 0.0 **** 0.06
17550 H 87.11467933149794 233.54528383500144 122.12317455231795 H 0.0 **** 0.06
17551 C 93.0898706040339 104.02536007579732 170.93678961854468 C 0.0 **** -0.24
17552 H 93.32074016996202 104.8986003013126 171.54662838224823 H 0.0 **** 0.06
17553 H 94.01697086244226 103.55502590662684 170.6100780591233 H 0.0 **** 0.06
17554 H 92.51163153014076 104.33279862483536 170.06552692576787 H 0.0 **** 0.06
17555 H 92.50883800093797 103.31468061649687 171.52536450662913 H 0.0 **** 0.06
17556 C 107.49155052223136 110.31233064908477 213.4765839788312 C 0.0 **** -0.24
17557 H 106.57361522173716 110.0848978127168 214.01893226333564 H 0.0 **** 0.06
17558 H 108.22401487279646 110.73758838411067 214.16391462652385 H 0.0 **** 0.06
17559 H 107.2770279574803 111.030044611471 212.68465196894454 H 0.0 **** 0.06
17560 H 107.89049616370085 109.39740314307937 213.0395638482555 H 0.0 **** 0.06
17561 C 20.32480139175115 164.27869419580622 225.55458155100666 C 0.0 **** -0.24
17562 H 20.393630383354008 164.65603544165512 226.57493527621295 H 0.0 **** 0.06
17563 H 19.57005330430141 164.84491971574258 225.00842629982583 H 0.0 **** 0.06
17564 H 20.043271894695323 163.2252729955452 225.57561720625807 H 0.0 **** 0.06
17565 H 21.289611098550466 164.38778085766833 225.06055029037742 H 0.0 **** 0.06
17566 C 98.03806502794143 225.3223049078965 196.24136870640322 C 0.0 **** -0.24
17567 H 97.3767390088959 226.1008157436497 195.86149459485043 H 0.0 **** 0.06
17568 H 98.40447503468127 225.60645786170463 197.22745205360135 H 0.0 **** 0.06
17569 H 98.88163085560618 225.20048924653136 195.56179883537806 H 0.0 **** 0.06
17570 H 97.49062261734733 224.38302877032206 196.3132902178677 H 0.0 **** 0.06
17571 C 20.813371933891887 51.88858173433104 217.95824830892963 C 0.0 **** -0.24
17572 H 20.457619190168558 51.49744537031867 217.00443181141765 H 0.0 **** 0.06
17573 H 21.827928785077432 52.268230944743976 217.83951568290718 H 0.0 **** 0.06
17574 H 20.80737766649945 51.09145966691162 218.7013008253951 H 0.0 **** 0.06
17575 H 20.158545511791175 52.696324584843325 218.28569970532635 H 0.0 **** 0.06
17576 C 173.0953621095635 84.98247559152492 121.15560706404867 C 0.0 **** -0.24
17577 H 172.61549714145042 85.31531586003078 122.07545081598073 H 0.0 **** 0.06
17578 H 173.13321167339842 85.80991075086996 120.44629539250951 H 0.0 **** 0.06
17579 H 172.523465611875 84.15990636874673 120.72453299566394 H 0.0 **** 0.06
17580 H 174.1078500171113 84.64500316944029 121.37519113000701 H 0.0 **** 0.06
17581 C 147.06047641779506 7.6141316926401 232.80656593316405 C 0.0 **** -0.24
17582 H 147.95335745810914 6.989134509019394 232.81171717034007 H 0.0 **** 0.06
17583 H 147.3411614074034 8.651063824126808 232.99050140511014 H 0.0 **** 0.06
17584 H 146.37823860941248 7.278601692658242 233.58774693820334 H 0.0 **** 0.06
17585 H 146.5682848453525 7.536857041337228 231.83752225756186 H 0.0 **** 0.06
17586 C 174.42617798195874 150.93589136022246 117.08433939963768 C 0.0 **** -0.24
17587 H 174.76847893657515 150.01636671935796 117.55896141660676 H 0.0 **** 0.06
17588 H 175.08095073624708 151.757955593291 117.37073177168205 H 0.0 **** 0.06
17589 H 173.40681582819428 151.1522630302494 117.40620999895415 H 0.0 **** 0.06
17590 H 174.4464689887978 150.8139861911704 116.00167095203423 H 0.0 **** 0.06
17591 C 61.33893425702078 70.68871307139273 48.95936830687194 C 0.0 **** -0.24
17592 H 61.588705997263986 70.34261345214591 49.96176078952351 H 0.0 **** 0.06
17593 H 60.29481170941699 70.45706012394575 48.74495374723307 H 0.0 **** 0.06
17594 H 61.97894878615389 70.18836777858496 48.23243876260939 H 0.0 **** 0.06
17595 H 61.49285925927231 71.76548826748788 48.89803456333887 H 0.0 **** 0.06
17596 C 219.33628753335256 22.844000430379396 245.91008101247064 C 0.0 **** -0.24
17597 H 219.22457184306904 22.019312992194244 246.61369439963966 H 0.0 **** 0.06
17598 H 218.5649442635589 22.77225322734577 245.14255154793432 H 0.0 **** 0.06
17599 H 220.3191619701029 22.79354936606316 245.44283900979877 H 0.0 **** 0.06
17600 H 219.2333465070445 23.790414024379032 246.44114882871423 H 0.0 **** 0.06
17601 C 222.47745886486524 30.170583984839283 20.170361858809343 C 0.0 **** -0.24
17602 H 221.65843167798158 30.8485690711438 19.931104141776245 H 0.0 **** 0.06
17603 H 222.10833986469245 29.365834218871214 20.806822034481314 H 0.0 **** 0.06
17604 H 223.26072147910264 30.718100533808 20.693741134300723 H 0.0 **** 0.06
17605 H 222.88153415198533 29.750209514306547 19.249328179845094 H 0.0 **** 0.06
17606 C 241.0672225056643 215.33607311135296 63.23917426414104 C 0.0 **** -0.24
17607 H 239.9799588740562 215.38709157880055 63.19188293829836 H 0.0 **** 0.06
17608 H 241.44025350678498 214.7511864288561 62.39844481325744 H 0.0 **** 0.06
17609 H 241.36764114197354 214.86224179172865 64.17341410881932 H 0.0 **** 0.06
17610 H 241.48007067465568 216.3439155031908 63.193978325220144 H 0.0 **** 0.06
17611 C 96.18595853799098 220.6956343978276 203.55274617427386 C 0.0 **** -0.24
17612 H 95.21985528351922 220.21991381052624 203.387422301798 H 0.0 **** 0.06
17613 H 96.49683008666773 220.5365462648657 204.58512178992464 H 0.0 **** 0.06
17614 H 96.10162243125808 221.76457260725664 203.35803333387764 H 0.0 **** 0.06
17615 H 96.92505998543257 220.26034667550996 202.87920684291157 H 0.0 **** 0.06
17616 C 36.549196528209336 214.34459204066835 231.1411550307879 C 0.0 **** -0.24
17617 H 37.13985721882409 214.80666257025624 231.9321084695376 H 0.0 **** 0.06
17618 H 35.62295543521141 213.9528564517658 231.56205316488814 H 0.0 **** 0.06
17619 H 37.11698114773374 213.5311118515109 230.69050309402766 H 0.0 **** 0.06
17620 H 36.31608486670106 215.0896674995111 230.38062687167712 H 0.0 **** 0.06
17621 C 44.393451714048524 46.252802152967234 17.834457956739726 C 0.0 **** -0.24
17622 H 43.82730387406147 45.34688634718182 18.048952097716068 H 0.0 **** 0.06
17623 H 44.204820312127396 46.565359050662295 16.807829036158978 H 0.0 **** 0.06
17624 H 45.45694374725771 46.055304705684165 17.965351094185536 H 0.0 **** 0.06
17625 H 44.08391248430996 47.04344925149471 18.517995958954288 H 0.0 **** 0.06
17626 C 70.73871183977732 1.7845330402107322 113.42163519505661 C 0.0 **** -0.24
17627 H 70.33194695409964 1.1844666196679157 114.23567032244776 H 0.0 **** 0.06
17628 H 71.81341613728765 1.6154977530053714 113.3490519963506 H 0.0 **** 0.06
17629 H 70.54785475614767 2.8394043288210185 113.6175272617705 H 0.0 **** 0.06
17630 H 70.2620833056051 1.4968346570875326 112.48456291966997 H 0.0 **** 0.06
17631 C 174.7132391427681 49.41726263501752 52.50874945293981 C 0.0 **** -0.24
17632 H 174.08227491608875 49.1951691081147 53.36993188918474 H 0.0 **** 0.06
17633 H 174.71012920866934 48.565088818916195 51.82838212985571 H 0.0 **** 0.06
17634 H 175.7307634439302 49.61199346295956 52.84426956904106 H 0.0 **** 0.06
17635 H 174.32588370408772 50.295525014928415 51.99276832870473 H 0.0 **** 0.06
17636 C 6.470178471982919 24.530514627945962 81.64360408388495 C 0.0 **** -0.24
17637 H 5.650692062217374 24.867931494085184 81.01096482827853 H 0.0 **** 0.06
17638 H 6.069019070005183 24.129333263804483 82.57462783328796 H 0.0 **** 0.06
17639 H 7.129558612919439 25.370461957615333 81.86391951521455 H 0.0 **** 0.06
17640 H 7.033099458858061 23.75398929296452 81.12528184832192 H 0.0 **** 0.06
17641 C 27.403584417871983 144.152385428916 228.29260767911626 C 0.0 **** -0.24
17642 H 27.348292563052382 143.4041554061567 227.50216463308448 H 0.0 **** 0.06
17643 H 26.438075470467425 144.6488817626886 228.3904669348653 H 0.0 **** 0.06
17644 H 28.167677046969274 144.88844515550392 228.04266148084534 H 0.0 **** 0.06
17645 H 27.660827037540614 143.66756630018986 229.2344512000638 H 0.0 **** 0.06
17646 C 39.88001713647074 81.13066329830627 201.92905981949315 C 0.0 **** -0.24
17647 H 38.91018028445805 80.63463707115093 201.9583860108152 H 0.0 **** 0.06
17648 H 39.76840955352648 82.1210632209883 201.48888451362455 H 0.0 **** 0.06
17649 H 40.57185590176127 80.54099548251062 201.32673717420528 H 0.0 **** 0.06
17650 H 40.27053254120787 81.22421167543939 202.9425848525295 H 0.0 **** 0.06
17651 C 45.992639945982035 126.17983717977248 125.52918270185364 C 0.0 **** -0.24
17652 H 44.95671468427582 126.05516561964023 125.21757172524212 H 0.0 **** 0.06
17653 H 46.02330045109046 126.49246667868314 126.57272057585251 H 0.0 **** 0.06
17654 H 46.47009954046477 126.93853804741897 124.90868459300196 H 0.0 **** 0.06
17655 H 46.52260318489259 125.23339456494205 125.41720984123904 H 0.0 **** 0.06
17656 C 200.61859397651196 157.4116658478596 104.10699395754929 C 0.0 **** -0.24
17657 H 201.38867649864295 157.59101779237602 103.35698838805985 H 0.0 **** 0.06
17658 H 200.53719596452552 156.34080823864983 104.29473025772461 H 0.0 **** 0.06
17659 H 199.66314988852247 157.79061955852407 103.74332617632916 H 0.0 **** 0.06
17660 H 200.88545158248854 157.92403829055672 105.0304900606051 H 0.0 **** 0.06
17661 C 125.38455789826858 157.30349549309057 17.032357173484414 C 0.0 **** -0.24
17662 H 125.43091004131523 156.42287251522907 17.674288037757535 H 0.0 **** 0.06
17663 H 126.38635484914323 157.54479599631912 16.674679215651565 H 0.0 **** 0.06
17664 H 124.98806619454416 158.14547054195322 17.599226566599384 H 0.0 **** 0.06
17665 H 124.7346228103425 157.09766262224252 16.182193792399943 H 0.0 **** 0.06
17666 C 1.4300474931425242 21.553348372646653 19.98357125725522 C 0.0 **** -0.24
17667 H 1.5742686744663814 22.266682808556652 19.17221634052747 H 0.0 **** 0.06
17668 H 2.3154276337548794 21.54281503412294 20.619991427871028 H 0.0 **** 0.06
17669 H 1.2701655415420987 20.55835406872157 19.567232844830883 H 0.0 **** 0.06
17670 H 0.5613548106523183 21.843857937907757 20.573391376720892 H 0.0 **** 0.06
17671 C 118.79076195835577 226.76481789632183 57.40295193300088 C 0.0 **** -0.24
17672 H 119.87705625922646 226.67974112699096 57.40339487452408 H 0.0 **** 0.06
17673 H 118.35358679606549 225.83652234929764 57.772408068526175 H 0.0 **** 0.06
17674 H 118.44135404711938 226.95111913103898 56.38673466091424 H 0.0 **** 0.06
17675 H 118.4895846436248 227.5905421701787 58.047025849934215 H 0.0 **** 0.06
17676 C 34.65892475928737 213.62611343488442 189.44417266871295 C 0.0 **** -0.24
17677 H 33.976255761466604 213.6229336622988 190.2947733457582 H 0.0 **** 0.06
17678 H 34.86928287670301 212.598783060629 189.14466249207095 H 0.0 **** 0.06
17679 H 35.58808649852861 214.11911765087657 189.72655159004975 H 0.0 **** 0.06
17680 H 34.20130689827985 214.16065019355966 188.6125995198588 H 0.0 **** 0.06
17681 C 76.31208832829245 222.69281170260047 165.7465939843119 C 0.0 **** -0.24
17682 H 77.00888191031689 221.9616842774478 165.33539941784957 H 0.0 **** 0.06
17683 H 76.8590010343834 223.41406210509842 166.3536598088764 H 0.0 **** 0.06
17684 H 75.57344794437938 222.18245790170826 166.36386778113163 H 0.0 **** 0.06
17685 H 75.80870746351968 223.21126996604596 164.93012946582695 H 0.0 **** 0.06
17686 C 220.57462024351025 29.732793178551262 240.2650975350752 C 0.0 **** -0.24
17687 H 219.6076455267106 30.227505644562413 240.175297537387 H 0.0 **** 0.06
17688 H 220.51610027158708 28.957664232660377 241.03013355584636 H 0.0 **** 0.06
17689 H 221.33296604606505 30.464238625293774 240.54564125374708 H 0.0 **** 0.06
17690 H 220.84166549831122 29.2803988789516 239.30967155387867 H 0.0 **** 0.06
17691 C 228.07665458287488 113.57648107083978 70.07112419952739 C 0.0 **** -0.24
17692 H 228.25712557698893 113.27162942148331 71.10251562503703 H 0.0 **** 0.06
17693 H 227.07583635488226 114.00111130406847 69.98956064486597 H 0.0 **** 0.06
17694 H 228.15831838270617 112.7098169923797 69.41668325631582 H 0.0 **** 0.06
17695 H 228.81387198185058 114.3235902778724 69.77971230260596 H 0.0 **** 0.06
17696 C 238.8839265438454 239.7200585081025 96.2983733131756 C 0.0 **** -0.24
17697 H 239.01212244363307 240.74962064212957 95.96396010457477 H 0.0 **** 0.06
17698 H 237.85601621843009 239.57071459555453 96.62756523233804 H 0.0 **** 0.06
17699 H 239.56479307249288 239.52006722962645 97.12600718883968 H 0.0 **** 0.06
17700 H 239.10517191293837 239.04100043310115 95.47458742337804 H 0.0 **** 0.06
17701 C 151.0261681637666 193.4990426475142 170.01715416464597 C 0.0 **** -0.24
17702 H 151.10335972778213 194.0135573153076 169.05902385309233 H 0.0 **** 0.06
17703 H 151.8655899112835 193.78464635871083 170.6510360290701 H 0.0 **** 0.06
17704 H 151.0440578473124 192.4216054424581 169.85324383245452 H 0.0 **** 0.06
17705 H 150.0916891979539 193.77671043923434 170.50437611137556 H 0.0 **** 0.06
17706 C 152.42703998804004 84.96243286888841 118.90546837074388 C 0.0 **** -0.24
17707 H 152.36550138706204 85.49132544434872 117.954143916389 H 0.0 **** 0.06
17708 H 151.57061794368022 85.22825744401658 119.52481491544972 H 0.0 **** 0.06
17709 H 153.34751371532482 85.24305784053522 119.41791672600817 H 0.0 **** 0.06
17710 H 152.425819333862 83.88749144510598 118.72391667565526 H 0.0 **** 0.06
17711 C 7.325873228322337 248.59394156318254 38.00163160064599 C 0.0 **** -0.24
17712 H 7.466120093995329 248.27100823850867 36.970681824480195 H 0.0 **** 0.06
17713 H 7.902350620921794 249.50229215939373 38.17848630117781 H 0.0 **** 0.06
17714 H 7.665498691067654 247.809999712115 38.678157493229705 H 0.0 **** 0.06
17715 H 6.268608677387618 248.79457532886147 38.17835551543233 H 0.0 **** 0.06
17716 C 217.65194460580477 50.743761255270755 77.59272513383064 C 0.0 **** -0.24
17717 H 218.63660059964383 50.413388043439284 77.92348287550374 H 0.0 **** 0.06
17718 H 217.74703332921 51.688826048261305 77.05682098825184 H 0.0 **** 0.06
17719 H 217.00486538496352 50.88107017851473 78.4590624299434 H 0.0 **** 0.06
17720 H 217.21959357262313 49.99268530212987 76.93131900318966 H 0.0 **** 0.06
17721 C 218.5038032567526 199.1230547646852 168.5929975455636 C 0.0 **** -0.24
17722 H 218.6732834143864 199.02985224940153 169.66583366498824 H 0.0 **** 0.06
17723 H 218.72314302603837 198.17296026833583 168.1069542633324 H 0.0 **** 0.06
17724 H 219.15491826300752 199.8981837827327 168.18886783494372 H 0.0 **** 0.06
17725 H 217.46321707346348 199.3924371314952 168.41318069169927 H 0.0 **** 0.06
17726 C 140.7108131179319 134.9539708900616 190.99141365175382 C 0.0 **** -0.24
17727 H 140.78603619144315 134.24828579320695 190.16374487257994 H 0.0 **** 0.06
17728 H 141.16775462299748 134.52018157839575 191.88036351215266 H 0.0 **** 0.06
17729 H 139.6605196625735 135.16905155519964 191.18899790521658 H 0.0 **** 0.06
17730 H 141.22827511535277 135.87651893256788 190.72936259948307 H 0.0 **** 0.06
17731 C 123.24855623574103 234.3533912716884 60.665245489238714 C 0.0 **** -0.24
17732 H 123.84729390097286 234.42680797268542 59.75747417245361 H 0.0 **** 0.06
17733 H 123.87169922901049 233.99129707367854 61.4828536893034 H 0.0 **** 0.06
17734 H 122.42416736085994 233.65865756672244 60.50146319199851 H 0.0 **** 0.06
17735 H 122.85040587152406 235.33632302750152 60.91861089224324 H 0.0 **** 0.06
17736 C 48.667345771185765 7.483626514458237 122.05977382849497 C 0.0 **** -0.24
17737 H 47.96258345071119 6.830113470182624 122.57219974956521 H 0.0 **** 0.06
17738 H 48.64197516130581 7.277630211616213 120.98907198491682 H 0.0 **** 0.06
17739 H 49.67325421513722 7.3029647771275705 122.440222404651 H 0.0 **** 0.06
17740 H 48.3931723410432 8.523274484288194 122.23720153887018 H 0.0 **** 0.06
17741 C 226.1625222765858 194.3378540789712 43.062193058071884 C 0.0 **** -0.24
17742 H 227.0451840151772 194.46895481177486 43.688250901530466 H 0.0 **** 0.06
17743 H 225.26936749459472 194.34367583714285 43.68693797500332 H 0.0 **** 0.06
17744 H 226.23073488090492 193.3864174956173 42.532797121739165 H 0.0 **** 0.06
17745 H 226.10633151874754 195.15169886536333 42.33850262534935 H 0.0 **** 0.06
17746 C 6.260046801259577 238.5740821581652 244.500151227823 C 0.0 **** -0.24
17747 H 6.810626473149156 239.34180429630607 245.04329697908207 H 0.0 **** 0.06
17748 H 6.575143686004623 237.58914832870374 244.84345264848287 H 0.0 **** 0.06
17749 H 6.461427413903095 238.66874544199533 243.43279126645882 H 0.0 **** 0.06
17750 H 5.192106187974275 238.69794800483413 244.67948796860634 H 0.0 **** 0.06
17751 C 0.049679158151334946 24.64676616001364 9.88158460047157 C 0.0 **** -0.24
17752 H 0.06743558694711282 24.366259082685787 8.828749356182456 H 0.0 **** 0.06
17753 H -0.7095191758229191 24.060669835866378 10.400210250604275 H 0.0 **** 0.06
17754 H -0.18639542642328877 25.70777980619593 9.969518740626555 H 0.0 **** 0.06
17755 H 1.0256214802866737 24.453149438432007 10.326159355856092 H 0.0 **** 0.06
17756 C 137.83147538271533 5.100037888752098 241.8656765241558 C 0.0 **** -0.24
17757 H 137.71352232888975 5.951739134232014 241.19463729341624 H 0.0 **** 0.06
17758 H 138.5357170834339 5.355748522560816 242.65745507229235 H 0.0 **** 0.06
17759 H 138.21021318945145 4.245755658661977 241.30384548027604 H 0.0 **** 0.06
17760 H 136.86586153196808 4.847714187174262 242.30453095953462 H 0.0 **** 0.06
17761 C 235.75782310594406 237.24119399651482 8.326180626281399 C 0.0 **** -0.24
17762 H 236.51079279705573 237.34400586529148 7.54446268612358 H 0.0 **** 0.06
17763 H 234.8497751170521 237.76288394418188 8.025426560153704 H 0.0 **** 0.06
17764 H 236.1358762476189 237.67224292999938 9.252693010880051 H 0.0 **** 0.06
17765 H 235.53740383492004 236.1847469212005 8.48084961411493 H 0.0 **** 0.06
17766 C 248.33102650803994 215.74152128828106 178.9809070957437 C 0.0 **** -0.24
17767 H 249.21151960030147 216.21316963696881 178.54461898179522 H 0.0 **** 0.06
17768 H 247.56387313315474 216.49745889275994 179.15382795561143 H 0.0 **** 0.06
17769 H 248.60120495735077 215.27401120027417 179.92710236098918 H 0.0 **** 0.06
17770 H 247.94842968791295 214.9842427099501 178.2965538259039 H 0.0 **** 0.06
17771 C 245.3168968142002 183.1826398078364 127.10438489753273 C 0.0 **** -0.24
17772 H 244.84344311099028 183.41583074904713 128.0586627163173 H 0.0 **** 0.06
17773 H 245.6009091317821 184.10898513255364 126.60396615032948 H 0.0 **** 0.06
17774 H 244.6183271690765 182.63011524811242 126.47814324676966 H 0.0 **** 0.06
17775 H 246.2061798496825 182.5767130092164 127.27980146688424 H 0.0 **** 0.06
17776 C 35.94734311812171 126.96973349397774 78.44407580500226 C 0.0 **** -0.24
17777 H 36.919575181887794 126.47771122974044 78.44760670373537 H 0.0 **** 0.06
17778 H 35.56175999609101 127.00411491347123 77.42417916221294 H 0.0 **** 0.06
17779 H 36.05127984293351 127.98394316471644 78.82790448668854 H 0.0 **** 0.06
17780 H 35.25574847934597 126.4114231140835 79.07521679306072 H 0.0 **** 0.06
17781 C 35.49540371926106 228.62530704551332 155.5635305467175 C 0.0 **** -0.24
17782 H 35.97265695754801 229.56458769242485 155.2855993074228 H 0.0 **** 0.06
17783 H 34.987865322429855 228.74443612824243 156.5205663885585 H 0.0 **** 0.06
17784 H 36.25175240847051 227.844884295123 155.6471221739058 H 0.0 **** 0.06
17785 H 34.7694366771651 228.34672000367107 154.7989288895264 H 0.0 **** 0.06
17786 C 51.97447482317851 101.19971498167686 135.89889378891976 C 0.0 **** -0.24
17787 H 52.76877908794182 100.67635204709975 136.431616557156 H 0.0 **** 0.06
17788 H 51.990748720485854 102.25588373503396 136.16942530640205 H 0.0 **** 0.06
17789 H 51.01108364298234 100.76934379823308 136.16988942460833 H 0.0 **** 0.06
17790 H 52.128522759512975 101.09661119003783 134.8248088715569 H 0.0 **** 0.06
17791 C 54.16627213816102 41.677477141705424 18.827796408349528 C 0.0 **** -0.24
17792 H 55.17080477347153 42.09742803186154 18.87667381506715 H 0.0 **** 0.06
17793 H 53.98954351054121 41.056464617822144 19.706107861386656 H 0.0 **** 0.06
17794 H 54.069775415916894 41.07026116186819 17.927506060853858 H 0.0 **** 0.06
17795 H 53.43583758562889 42.48605609241373 18.801282009254805 H 0.0 **** 0.06
17796 C 98.49137500391294 246.21903460457733 166.69527658947104 C 0.0 **** -0.24
17797 H 98.16171604734348 245.70431093545548 165.79300718292606 H 0.0 **** 0.06
17798 H 97.6802468694365 246.22961278338127 167.4247612301318 H 0.0 **** 0.06
17799 H 98.77101938702123 247.24326418699056 166.44776223729716 H 0.0 **** 0.06
17800 H 99.35174039448128 245.6992879494239 167.11670793254763 H 0.0 **** 0.06
17801 C 0.964378582780256 60.68864032261152 9.844399292110268 C 0.0 **** -0.24
17802 H 0.559044211382087 60.275772746314544 8.920439885909417 H 0.0 **** 0.06
17803 H 2.0460130876269886 60.551626027047206 9.857832736352151 H 0.0 **** 0.06
17804 H 0.5215596499703565 60.17499541540272 10.696650929294506 H 0.0 **** 0.06
17805 H 0.7319897886294768 61.75211969044349 9.899095274173021 H 0.0 **** 0.06
17806 C 23.231738078902396 150.9472976069144 48.48382544386865 C 0.0 **** -0.24
17807 H 24.150593191954073 150.6207044195649 48.97045336842527 H 0.0 **** 0.06
17808 H 22.487944353392976 150.15295077459288 48.543227206818045 H 0.0 **** 0.06
17809 H 23.435357203014206 151.17730397666477 47.43810899610625 H 0.0 **** 0.06
17810 H 22.852400874069502 151.8383603908008 48.9842552305212 H 0.0 **** 0.06
17811 C 106.52412135269145 209.3671953382369 71.57538647547588 C 0.0 **** -0.24
17812 H 107.10436320639451 210.20309045386773 71.18404094999784 H 0.0 **** 0.06
17813 H 106.34587625110422 209.51625792874216 72.64036422058066 H 0.0 **** 0.06
17814 H 107.07706950880572 208.43965450158225 71.42423783970739 H 0.0 **** 0.06
17815 H 105.5709894713674 209.3109559729869 71.05107902344145 H 0.0 **** 0.06
17816 C 57.29559442351305 41.095746967776506 157.33240714652402 C 0.0 **** -0.24
17817 H 58.27579810871785 41.36142686986308 157.72851381899267 H 0.0 **** 0.06
17818 H 57.416043490377945 40.58738211849392 156.3750055664352 H 0.0 **** 0.06
17819 H 56.70319775477009 41.999450423800155 157.19262585222285 H 0.0 **** 0.06
17820 H 56.788388114345224 40.4329348230722 158.03477984487122 H 0.0 **** 0.06
17821 C 17.714610485120005 62.37988853150844 243.09951359329875 C 0.0 **** -0.24
17822 H 17.63777425927141 61.437257806456614 242.55813195871553 H 0.0 **** 0.06
17823 H 18.762824846424735 62.59144943283462 243.31233796615922 H 0.0 **** 0.06
17824 H 17.16104868158041 62.30732192247507 244.0356978627189 H 0.0 **** 0.06
17825 H 17.297924268631945 63.182862975009385 242.49135307944832 H 0.0 **** 0.06
17826 C 220.4446743430139 4.697571244474304 76.99560294165178 C 0.0 **** -0.24
17827 H 220.2435429762063 5.673079148710826 77.44007463471274 H 0.0 **** 0.06
17828 H 220.1846234681973 4.720832896668156 75.93687822933265 H 0.0 **** 0.06
17829 H 219.84784132143585 3.9381161927732506 77.50027108375764 H 0.0 **** 0.06
17830 H 221.50302555786402 4.461173878544656 77.10457338788683 H 0.0 **** 0.06
17831 C 53.80443084995369 210.32753015020126 184.7625104461299 C 0.0 **** -0.24
17832 H 52.834489227177585 209.99767002731602 184.39066892823018 H 0.0 **** 0.06
17833 H 53.8985571603161 210.0608037559653 185.81557257418726 H 0.0 **** 0.06
17834 H 53.88710949060743 211.4084257191307 184.65212216215994 H 0.0 **** 0.06
17835 H 54.5964283179141 209.84249184102742 184.19209093693962 H 0.0 **** 0.06
17836 C 15.016868619199158 79.96422067728449 88.60152877762687 C 0.0 **** -0.24
17837 H 15.404917200012449 80.5701851164549 87.7830802686376 H 0.0 **** 0.06
17838 H 13.96630385030494 80.20617219759879 88.76619118768048 H 0.0 **** 0.06
17839 H 15.584315691027257 80.17073707859646 89.50825715649677 H 0.0 **** 0.06
17840 H 15.109982677727885 78.90822063660974 88.34665770883154 H 0.0 **** 0.06
17841 C 232.81356212254715 193.41250714662635 61.708910945340534 C 0.0 **** -0.24
17842 H 233.2686577070091 194.3025546050798 61.273774064581886 H 0.0 **** 0.06
17843 H 232.77650038912472 192.62104514815115 60.95922840015152 H 0.0 **** 0.06
17844 H 231.80154182576342 193.64765445999703 62.039908283820154 H 0.0 **** 0.06
17845 H 233.40668712040164 193.07980707071818 62.5600513297739 H 0.0 **** 0.06
17846 C 243.68329908851877 92.34162652493902 105.26919122118903 C 0.0 **** -0.24
17847 H 243.62127023691326 93.4273446939209 105.19609507273788 H 0.0 **** 0.06
17848 H 244.38579215258954 92.06946648440237 106.05720707163076 H 0.0 **** 0.06
17849 H 244.0259760673901 91.93279633173918 104.31924547575304 H 0.0 **** 0.06
17850 H 242.69874410049405 91.93692499486923 105.50419487788707 H 0.0 **** 0.06
17851 C 26.62603447859229 70.5372012301236 159.42207497310272 C 0.0 **** -0.24
17852 H 26.923272273427983 69.49450444278224 159.30387731654355 H 0.0 **** 0.06
17853 H 26.490889704136194 70.9890319963583 158.4382587101932 H 0.0 **** 0.06
17854 H 27.401058134580282 71.07568109219969 159.96609549204524 H 0.0 **** 0.06
17855 H 25.68973965761512 70.58621117621729 159.97691782539894 H 0.0 **** 0.06
17856 C 62.64898307779973 89.60079682808589 61.959710597795606 C 0.0 **** -0.24
17857 H 62.80692958008916 90.20484588497604 61.06632030960495 H 0.0 **** 0.06
17858 H 63.32526520237445 88.74565284772586 61.94356013180615 H 0.0 **** 0.06
17859 H 61.617877248753246 89.24861544533093 61.98257122787689 H 0.0 **** 0.06
17860 H 62.84586027998185 90.20407313431062 62.84639072189435 H 0.0 **** 0.06
17861 C 154.51385506993714 112.36662788685655 227.60976494049635 C 0.0 **** -0.24
17862 H 155.50620284390803 112.04525704901656 227.2907849011775 H 0.0 **** 0.06
17863 H 153.75710074266598 111.81078986744575 227.05589802841476 H 0.0 **** 0.06
17864 H 154.39790417386553 113.43320869406668 227.41432095492303 H 0.0 **** 0.06
17865 H 154.39707619585738 112.17735968496333 228.67671845818617 H 0.0 **** 0.06
17866 C 190.62338892279277 33.3346016361493 176.92334778758783 C 0.0 **** -0.24
17867 H 191.33411649450534 34.09162188984435 176.59124655713032 H 0.0 **** 0.06
17868 H 189.8708308734549 33.79854285808125 177.56106598212926 H 0.0 **** 0.06
17869 H 191.1503984367836 32.563520397811615 177.48470352017483 H 0.0 **** 0.06
17870 H 190.13918338276886 32.8864637243327 176.05650410940555 H 0.0 **** 0.06
17871 C 210.11533713112195 124.83595290458845 123.1280711316615 C 0.0 **** -0.24
17872 H 209.69778006941618 123.83263578661078 123.20956607351471 H 0.0 **** 0.06
17873 H 209.39091299497872 125.56101619372043 123.50079553348053 H 0.0 **** 0.06
17874 H 210.34104734467468 125.05116900869353 122.083921002925 H 0.0 **** 0.06
17875 H 211.02866229645804 124.89842389620208 123.71796948442605 H 0.0 **** 0.06
17876 C 247.5591312808248 60.63629167668918 87.93176726849404 C 0.0 **** -0.24
17877 H 246.56780929889155 60.19659111825635 87.82447462711727 H 0.0 **** 0.06
17878 H 247.58932234098506 61.59485693806275 87.41476175748582 H 0.0 **** 0.06
17879 H 248.30238590978362 59.96601504140992 87.49854288063293 H 0.0 **** 0.06
17880 H 247.777418249162 60.78530600181463 88.98900191346033 H 0.0 **** 0.06
17881 C 141.5562791115816 130.23434082361763 236.35939346155936 C 0.0 **** -0.24
17882 H 140.47950235738872 130.10941441894747 236.47418799699295 H 0.0 **** 0.06
17883 H 142.067418770003 129.75367537655978 237.19503128436494 H 0.0 **** 0.06
17884 H 141.79954678507187 131.29606171575452 236.34718115391775 H 0.0 **** 0.06
17885 H 141.87675895057637 129.77592364673632 235.42436622970092 H 0.0 **** 0.06
17886 C 14.464270871087294 222.33764528219896 17.544615647596828 C 0.0 **** -0.24
17887 H 14.028953976752732 221.35803832840236 17.742466572079906 H 0.0 **** 0.06
17888 H 15.138433996992589 222.2702199345161 16.69093451954072 H 0.0 **** 0.06
17889 H 15.019795857934497 222.67085707492373 18.42175159374446 H 0.0 **** 0.06
17890 H 13.669471972058815 223.05061711179872 17.32533398053343 H 0.0 **** 0.06
17891 C 32.51972109523393 236.42338677780387 229.25873227426888 C 0.0 **** -0.24
17892 H 32.121405080840304 235.69338315906145 229.9623569072913 H 0.0 **** 0.06
17893 H 31.807636855568006 237.24093753849587 229.14139357962256 H 0.0 **** 0.06
17894 H 32.68637274846323 235.9443146948764 228.2939448703085 H 0.0 **** 0.06
17895 H 33.46391769601456 236.81624901267054 229.63733843261556 H 0.0 **** 0.06
17896 C 150.1086340219012 232.76355651172457 177.85043140415186 C 0.0 **** -0.24
17897 H 150.47504631999686 233.7818502502452 177.72111219827025 H 0.0 **** 0.06
17898 H 150.89364318031087 232.0574900562807 177.57806518186942 H 0.0 **** 0.06
17899 H 149.24069534092322 232.60581140932103 177.21015216949803 H 0.0 **** 0.06
17900 H 149.82559597750378 232.60848978137014 178.89118754085604 H 0.0 **** 0.06
17901 C 18.011552969512593 237.8605422524582 35.89963480587582 C 0.0 **** -0.24
17902 H 17.272241386688336 238.3017292965411 35.23040169670783 H 0.0 **** 0.06
17903 H 18.90645469616544 237.60300394070097 35.33114689168268 H 0.0 **** 0.06
17904 H 17.59802883283197 236.96011717844254 36.354999553601886 H 0.0 **** 0.06
17905 H 18.270060565967412 238.57662973949488 36.678797875397024 H 0.0 **** 0.06
17906 C 3.9603045236976584 189.93453489406784 208.17056284517744 C 0.0 **** -0.24
17907 H 4.937199001811081 189.44799358160637 208.17264314560475 H 0.0 **** 0.06
17908 H 3.7080759543288195 190.2441860583613 209.1843273472788 H 0.0 **** 0.06
17909 H 3.2080478696431385 189.2356505398252 207.80590801237074 H 0.0 **** 0.06
17910 H 3.991675632922437 190.80753996095748 207.51917465893092 H 0.0 **** 0.06
17911 C 150.56596199001433 230.76167014282848 241.18748715263587 C 0.0 **** -0.24
17912 H 149.7734143093071 230.84512918639376 240.44444252258992 H 0.0 **** 0.06
17913 H 151.5309521482449 230.93715488220263 240.7111199855866 H 0.0 **** 0.06
17914 H 150.5527311814305 229.76290330312185 241.6231215276246 H 0.0 **** 0.06
17915 H 150.4079460404944 231.5020768539942 241.97174376373232 H 0.0 **** 0.06
17916 C 219.95895714408616 179.03048622052808 163.7518245574535 C 0.0 **** -0.24
17917 H 220.96432516676134 179.43622286915473 163.64502817530047 H 0.0 **** 0.06
17918 H 219.2857934444492 179.8149411025558 164.0996330595256 H 0.0 **** 0.06
17919 H 219.97123457181016 178.215119133676 164.47579925131024 H 0.0 **** 0.06
17920 H 219.61356408037386 178.65612629735597 162.7882355127945 H 0.0 **** 0.06
17921 C 12.077102657300856 110.31199339391617 92.42603461665132 C 0.0 **** -0.24
17922 H 12.863431787638348 109.57184359790386 92.57141115942144 H 0.0 **** 0.06
17923 H 11.82478917429998 110.37215648111138 91.36735814196933 H 0.0 **** 0.06
17924 H 12.424365097230094 111.28469915962464 92.77308194964073 H 0.0 **** 0.06
17925 H 11.193368343584353 110.01872861244888 92.9942027399629 H 0.0 **** 0.06
17926 C 211.25949434354462 138.7618825850806 125.60002912945998 C 0.0 **** -0.24
17927 H 212.22207201520314 138.72402434495814 125.09147968819187 H 0.0 **** 0.06
17928 H 211.24192253593176 138.020112771149 126.39865691889577 H 0.0 **** 0.06
17929 H 210.46346127668198 138.54751418580904 124.8873271512887 H 0.0 **** 0.06
17930 H 211.11090913360601 139.75480414345571 126.02348606399906 H 0.0 **** 0.06
17931 C 197.77920021689957 157.24816964305964 244.8252534539958 C 0.0 **** -0.24
17932 H 197.9354584409994 157.98738014081732 244.03938464832186 H 0.0 **** 0.06
17933 H 196.71699231475893 157.19082673210275 245.0625712371713 H 0.0 **** 0.06
17934 H 198.33522711494055 157.54130099095485 245.71501952306556 H 0.0 **** 0.06
17935 H 198.12891611247656 156.27421428289094 244.4823448342811 H 0.0 **** 0.06
17936 C 122.03503404954162 186.2502886911041 194.64169894776342 C 0.0 **** -0.24
17937 H 122.23183327357489 187.2675227227447 194.30555828732435 H 0.0 **** 0.06
17938 H 121.92381558036101 186.2405669383925 195.7263724088755 H 0.0 **** 0.06
17939 H 122.86653468561397 185.6057129590608 194.35517949760367 H 0.0 **** 0.06
17940 H 121.11738112332716 185.88574296420924 194.17939591410624 H 0.0 **** 0.06
17941 C 156.5998775475489 161.2728788840156 26.0592323201831 C 0.0 **** -0.24
17942 H 156.54935101240784 161.85027932523906 26.98265062954377 H 0.0 **** 0.06
17943 H 155.60448003849015 160.90906458945992 25.803725900349633 H 0.0 **** 0.06
17944 H 157.27314489537386 160.42693153265125 26.196610349970825 H 0.0 **** 0.06
17945 H 156.9728907710753 161.90761518430776 25.254423927323018 H 0.0 **** 0.06
17946 C 184.17113720886255 235.14602380514702 93.21127624539139 C 0.0 **** -0.24
17947 H 183.9475678965884 236.21077997265152 93.15464918762467 H 0.0 **** 0.06
17948 H 183.7170012770554 234.6339814984816 92.3624330272144 H 0.0 **** 0.06
17949 H 183.7690218673413 234.73961813212907 94.1399410189114 H 0.0 **** 0.06
17950 H 185.25088153742746 235.0007040147311 93.18821314481295 H 0.0 **** 0.06
17951 C 30.505122965305958 140.35549904533914 77.99735354897524 C 0.0 **** -0.24
17952 H 30.85481142137749 140.26833932520208 79.02615612380873 H 0.0 **** 0.06
17953 H 29.800053088516876 141.183753497468 77.92287800932291 H 0.0 **** 0.06
17954 H 30.010475473282185 139.42924301506204 77.70328688341928 H 0.0 **** 0.06
17955 H 31.354677455162545 140.53871382198147 77.3393261289817 H 0.0 **** 0.06
17956 C 79.51998431507553 23.74416799814918 199.40289249577143 C 0.0 **** -0.24
17957 H 80.19937363672219 24.092385293459998 198.62510047289783 H 0.0 **** 0.06
17958 H 79.90316745748396 22.81727005560562 199.8310705711683 H 0.0 **** 0.06
17959 H 78.53504413981344 23.566030220776383 198.97156043066664 H 0.0 **** 0.06
17960 H 79.4436961735363 24.501309689685996 200.18413647836192 H 0.0 **** 0.06
17961 C 187.23327822837607 3.059986731265951 120.65345600396466 C 0.0 **** -0.24
17962 H 187.72909497751283 2.6274497207349157 119.78409931036734 H 0.0 **** 0.06
17963 H 186.25757733715935 3.4476975993992625 120.3601905529687 H 0.0 **** 0.06
17964 H 187.84270270099125 3.8708295868433 121.0523384973323 H 0.0 **** 0.06
17965 H 187.10546677255877 2.292554796856976 121.41710515784655 H 0.0 **** 0.06
17966 C 237.9029805707575 178.16161219182038 155.34034607532027 C 0.0 **** -0.24
17967 H 237.2469741615255 177.86049276518804 154.5228937757122 H 0.0 **** 0.06
17968 H 238.6809312971613 177.4102562447564 155.47575832339598 H 0.0 **** 0.06
17969 H 237.3202952561528 178.25165271920116 156.25756802481806 H 0.0 **** 0.06
17970 H 238.35983525476792 179.1217988914932 155.10380674636986 H 0.0 **** 0.06
17971 C 128.3014670205952 22.924375766354643 21.071765982104438 C 0.0 **** -0.24
17972 H 129.1930223762508 22.782377180972873 21.683143137023833 H 0.0 **** 0.06
17973 H 127.89282311598183 21.952859654519415 20.793400799577867 H 0.0 **** 0.06
17974 H 128.5636590224248 23.48091696787796 20.17216339708432 H 0.0 **** 0.06
17975 H 127.55731324667269 23.482252629053136 21.64016824774356 H 0.0 **** 0.06
17976 C 204.70916982692646 219.89173625249617 64.02923269546477 C 0.0 **** -0.24
17977 H 205.26707217449547 219.24326160640388 63.35286062018824 H 0.0 **** 0.06
17978 H 204.7424125366718 219.47815393599424 65.03721144499269 H 0.0 **** 0.06
17979 H 203.67281719561 219.95737854081622 63.696844534479084 H 0.0 **** 0.06
17980 H 205.1551468333564 220.88675831353248 64.0288023071814 H 0.0 **** 0.06
17981 C 41.388510168553296 191.70623793314002 102.16108326671556 C 0.0 **** -0.24
17982 H 40.445635629653026 192.05966273029026 101.74393091552969 H 0.0 **** 0.06
17983 H 41.63485767518881 192.29038513277956 103.04709089236584 H 0.0 **** 0.06
17984 H 42.1792210031887 191.81899521310504 101.41928225440077 H 0.0 **** 0.06
17985 H 41.29354058044996 190.65424338158516 102.43324833845728 H 0.0 **** 0.06
17986 C 148.4592883786019 111.78714291594565 66.94249182409513 C 0.0 **** -0.24
17987 H 147.81560453418234 111.54300692693727 67.78757010225726 H 0.0 **** 0.06
17988 H 147.88070236073366 112.31720434791606 66.18611779978536 H 0.0 **** 0.06
17989 H 148.86290565236135 110.8690569689607 66.51501099005262 H 0.0 **** 0.06
17990 H 149.27921736729388 112.42089374885941 67.2826255023165 H 0.0 **** 0.06
17991 C 25.27628948486344 98.06237488466982 242.56594630063228 C 0.0 **** -0.24
17992 H 24.3883154742892 97.54365510726737 242.2052850833243 H 0.0 **** 0.06
17993 H 25.918776351841316 98.31313763861701 241.72192601920912 H 0.0 **** 0.06
17994 H 25.81859940006619 97.4167193164752 243.2565890525552 H 0.0 **** 0.06
17995 H 24.979274562954757 98.97638356485965 243.0816602254439 H 0.0 **** 0.06
17996 C 146.39399470978663 116.91912549758857 71.16176767021915 C 0.0 **** -0.24
17997 H 146.54314014202754 115.88049899730319 71.4563032342439 H 0.0 **** 0.06
17998 H 147.23977680358723 117.25163908181054 70.55921232523752 H 0.0 **** 0.06
17999 H 146.31667011552884 117.54134866323201 72.05357247608214 H 0.0 **** 0.06
18000 H 145.47707144723606 117.00345080499923 70.57914383406447 H 0.0 **** 0.06
18001 C 193.3390294018349 209.35836422563722 15.341418591478629 C 0.0 **** -0.24
18002 H 193.80146180155802 210.20152186494872 15.854191480814592 H 0.0 **** 0.06
18003 H 192.82194766735353 209.7140592189514 14.450075715029328 H 0.0 **** 0.06
18004 H 192.62339611117886 208.87605778439038 16.007993469895126 H 0.0 **** 0.06
18005 H 194.1082019144956 208.64172581248218 15.054740038756194 H 0.0 **** 0.06
18006 C 114.38622281079302 57.04907074800917 127.4907734977213 C 0.0 **** -0.24
18007 H 115.44558711664067 57.23440104693739 127.6649271810783 H 0.0 **** 0.06
18008 H 114.26119926361852 56.51506973021182 126.54881352275208 H 0.0 **** 0.06
18009 H 113.85467208679674 57.999682200276396 127.44307373460677 H 0.0 **** 0.06
18010 H 113.98325006412742 56.448603085687324 128.30538696791655 H 0.0 **** 0.06
18011 C 206.55313463966309 179.28338507645037 182.88987903822044 C 0.0 **** -0.24
18012 H 207.37642115282344 179.9389642938129 183.17559880818888 H 0.0 **** 0.06
18013 H 206.93903961702938 178.45339392079148 182.29662899388666 H 0.0 **** 0.06
18014 H 205.8299762301036 179.8466554127725 182.29957825248215 H 0.0 **** 0.06
18015 H 206.06898803552545 178.8959631584101 183.78561777239392 H 0.0 **** 0.06
18016 C 186.5573524689502 97.54075560313674 173.15636967624997 C 0.0 **** -0.24
18017 H 186.0678621649817 96.77916468585545 172.55010316957896 H 0.0 **** 0.06
18018 H 187.44249522547096 97.90622843267784 172.63500369349106 H 0.0 **** 0.06
18019 H 186.85168967023532 97.10992653847998 174.11416324105548 H 0.0 **** 0.06
18020 H 185.867674444094 98.36740725592168 173.32711169394528 H 0.0 **** 0.06
18021 C 246.14847758338863 193.2336783287634 90.74257944377482 C 0.0 **** -0.24
18022 H 246.61697199816763 192.57694561331573 90.00925571091312 H 0.0 **** 0.06
18023 H 246.8870976111026 193.53106944053337 91.48716292015882 H 0.0 **** 0.06
18024 H 245.33039875228388 192.70693653164403 91.23227185621113 H 0.0 **** 0.06
18025 H 245.76132330141448 194.1198712043156 90.24006246407566 H 0.0 **** 0.06
18026 C 93.01991560223212 18.711893053035197 13.598002406363562 C 0.0 **** -0.24
18027 H 93.44395879568239 18.196144275191585 12.735450869428945 H 0.0 **** 0.06
18028 H 92.64567310845663 19.688010161210144 13.2884680438208 H 0.0 **** 0.06
18029 H 93.78989197170586 18.84118388197018 14.357733824759762 H 0.0 **** 0.06
18030 H 92.2009115440969 18.120910015898033 14.007250455696536 H 0.0 **** 0.06
18031 C 62.91184213759533 155.35969691446007 34.89200040899871 C 0.0 **** -0.24
18032 H 61.97246561024417 155.65992535586952 35.35651972423872 H 0.0 **** 0.06
18033 H 63.311192801676185 156.1913408117818 34.30974611406688 H 0.0 **** 0.06
18034 H 62.736927780317956 154.50798002187906 34.235281394719635 H 0.0 **** 0.06
18035 H 63.627185548276515 155.08165756481444 35.66585471806323 H 0.0 **** 0.06
18036 C 136.2573166829639 98.52559865218649 135.71226232947225 C 0.0 **** -0.24
18037 H 137.05542033292812 97.78265550851145 135.70169694183758 H 0.0 **** 0.06
18038 H 136.09891759668483 98.87430861571511 136.73250820908632 H 0.0 **** 0.06
18039 H 135.33832682121806 98.075650212716 135.3353517111833 H 0.0 **** 0.06
18040 H 136.53577989150205 99.36714383857449 135.07765574792293 H 0.0 **** 0.06
18041 C 148.22581875820325 86.95805420277043 92.26604142578475 C 0.0 **** -0.24
18042 H 148.1768844939409 86.76253135308292 91.19491780061324 H 0.0 **** 0.06
18043 H 147.50259585705905 87.73118396007689 92.52701381958508 H 0.0 **** 0.06
18044 H 149.22822980207295 87.29524012657484 92.52908955296192 H 0.0 **** 0.06
18045 H 147.99500249978294 86.04455674568038 92.81322038243493 H 0.0 **** 0.06
18046 C 234.85651954832912 43.33601423005102 168.25193879437705 C 0.0 **** -0.24
18047 H 234.1235866016208 43.20414036323453 169.04825289931782 H 0.0 **** 0.06
18048 H 235.8585289596395 43.17979178942282 168.65275953649876 H 0.0 **** 0.06
18049 H 234.7789198969879 44.345346147909524 167.84906296634165 H 0.0 **** 0.06
18050 H 234.66506664660002 42.612004777928334 167.45949783407457 H 0.0 **** 0.06
18051 C 85.37889012549118 88.5841415582519 78.2471126220511 C 0.0 **** -0.24
18052 H 85.83862178541074 87.74952644229123 77.71762798587005 H 0.0 **** 0.06
18053 H 85.33719376030115 89.45185030149466 77.58876277669614 H 0.0 **** 0.06
18054 H 85.97195957554945 88.82463926125061 79.1287730099331 H 0.0 **** 0.06
18055 H 84.36988436201648 88.30889752519474 78.55192182061117 H 0.0 **** 0.06
18056 C 105.71751132269807 67.76622283509312 111.76332976482723 C 0.0 **** -0.24
18057 H 105.81552980549995 67.44207382151495 112.79997308575906 H 0.0 **** 0.06
18058 H 104.66158413070954 67.89592460847922 111.52331977132579 H 0.0 **** 0.06
18059 H 106.15007600898448 67.01395475008562 111.10445111124724 H 0.0 **** 0.06
18060 H 106.24022882019526 68.7123840755103 111.62776471907577 H 0.0 **** 0.06
18061 C 176.4359853409058 163.14376983951473 99.20698996025615 C 0.0 **** -0.24
18062 H 176.99300590815236 162.97521997325657 98.28572094816894 H 0.0 **** 0.06
18063 H 175.5173927684084 162.55650684632087 99.18795208007074 H 0.0 **** 0.06
18064 H 176.18888097364484 164.20255862498053 99.29300927233717 H 0.0 **** 0.06
18065 H 177.0433846209046 162.84182063018986 100.06013083799962 H 0.0 **** 0.06
18066 C 67.23049636253305 193.04701870822203 73.67111244840135 C 0.0 **** -0.24
18067 H 67.19319969743427 193.69805888601212 74.54479901651715 H 0.0 **** 0.06
18068 H 68.10424515392492 193.29894046678425 73.06835954156125 H 0.0 **** 0.06
18069 H 66.3273538753219 193.1848934725872 73.0769931322476 H 0.0 **** 0.06
18070 H 67.29862575942849 192.00857819945918 73.99386507040111 H 0.0 **** 0.06
18071 C 97.7806872217038 193.40571428934408 175.0012527464411 C 0.0 **** -0.24
18072 H 98.6156387840262 193.12811557159534 175.64357306891281 H 0.0 **** 0.06
18073 H 98.0100279779827 193.1367058645397 173.97083591791997 H 0.0 **** 0.06
18074 H 97.61352289207699 194.48049886809113 175.06863049344497 H 0.0 **** 0.06
18075 H 96.88348483573895 192.87803724624263 175.32414960569747 H 0.0 **** 0.06
18076 C 186.39018429174263 205.70291188474306 78.25471692286663 C 0.0 **** -0.24
18077 H 186.99522254076425 205.41555368153968 77.39509808620693 H 0.0 **** 0.06
18078 H 185.56934937166622 204.99547477870698 78.37398279198112 H 0.0 **** 0.06
18079 H 185.9883294953629 206.704098718345 78.09752525492928 H 0.0 **** 0.06
18080 H 187.00882397517933 205.69642433170316 79.15238079493497 H 0.0 **** 0.06
18081 C 68.96214221932814 15.623385091418015 29.756045044828767 C 0.0 **** -0.24
18082 H 69.27306201940354 15.319800430321791 30.755497793585135 H 0.0 **** 0.06
18083 H 67.87427604584897 15.601022044865758 29.692565515578792 H 0.0 **** 0.06
18084 H 69.38454305334949 14.937909081487845 29.02129832331937 H 0.0 **** 0.06
18085 H 69.31769109366621 16.634405969147096 29.55701652259299 H 0.0 **** 0.06
18086 C 151.10614379117987 165.70459537825022 108.26239714739754 C 0.0 **** -0.24
18087 H 151.70427431481855 165.84803986365608 107.36251986383124 H 0.0 **** 0.06
18088 H 151.70830415435682 165.93980236238323 109.13988511811814 H 0.0 **** 0.06
18089 H 150.77355812291938 164.66753129923742 108.31618791951448 H 0.0 **** 0.06
18090 H 150.23796360774637 166.36255169122458 108.2293937420969 H 0.0 **** 0.06
18091 C 213.6470703694298 4.631706918842241 79.31456803555253 C 0.0 **** -0.24
18092 H 212.6707117672617 5.059187646448805 79.08595115451848 H 0.0 **** 0.06
18093 H 213.51424961362014 3.6635211570388435 79.79928193542531 H 0.0 **** 0.06
18094 H 214.18926447390137 5.301103119850978 79.98300491044225 H 0.0 **** 0.06
18095 H 214.21180680562662 4.502039484106035 78.39176324832385 H 0.0 **** 0.06
18096 C 187.42279110117204 91.75305652883236 118.16744720782248 C 0.0 **** -0.24
18097 H 188.2804035972689 91.27549189665075 117.69430199632043 H 0.0 **** 0.06
18098 H 187.05246484611843 91.11897144614906 118.97360361413601 H 0.0 **** 0.06
18099 H 186.6355976219411 91.90055835904181 117.429211345082 H 0.0 **** 0.06
18100 H 187.7249998816376 92.71914162614055 118.57438949827423 H 0.0 **** 0.06
18101 C 67.10831620316978 152.97739866945335 22.35925992853626 C 0.0 **** -0.24
18102 H 66.2236647953527 152.53847954088695 22.820132416308425 H 0.0 **** 0.06
18103 H 66.86644063245592 153.3083500685073 21.349380754215844 H 0.0 **** 0.06
18104 H 67.90345650151733 152.23194827531105 22.317364816392114 H 0.0 **** 0.06
18105 H 67.44175448080873 153.83056401494423 22.95101442868173 H 0.0 **** 0.06
18106 C 194.1511388426111 219.8646734762609 242.44254597632914 C 0.0 **** -0.24
18107 H 194.0219282936179 219.15322536490066 241.62700211693826 H 0.0 **** 0.06
18108 H 194.22194214470866 220.8738820094497 242.03537818576865 H 0.0 **** 0.06
18109 H 195.0629540598011 219.62818659406835 242.98979411086526 H 0.0 **** 0.06
18110 H 193.29663753124856 219.8038231826252 243.11610541274928 H 0.0 **** 0.06
18111 C 116.7161512668576 22.16749020143422 60.00517497121882 C 0.0 **** -0.24
18112 H 117.1021011279847 22.77133049163831 60.8264886615996 H 0.0 **** 0.06
18113 H 117.06106454092804 22.5816427636655 59.05761122129374 H 0.0 **** 0.06
18114 H 115.62643629110994 22.175200199155313 60.02965755606539 H 0.0 **** 0.06
18115 H 117.07483906177549 21.143317956287376 60.10773640218011 H 0.0 **** 0.06
18116 C 3.840348633161142 152.18162834693928 48.4834737645874 C 0.0 **** -0.24
18117 H 3.628299189745036 151.39103103338556 49.20175398100787 H 0.0 **** 0.06
18118 H 2.9038952217006795 152.63336620599523 48.15464174966138 H 0.0 **** 0.06
18119 H 4.362331583880291 151.76094692731135 47.623272902070084 H 0.0 **** 0.06
18120 H 4.466099296327712 152.94105382697094 48.95190370932845 H 0.0 **** 0.06
18121 C 218.23769709179228 19.26209806268463 91.12508941840275 C 0.0 **** -0.24
18122 H 217.6459741608263 19.964854337734963 91.71187571853491 H 0.0 **** 0.06
18123 H 219.2902829022272 19.36402420378107 91.38836254268188 H 0.0 **** 0.06
18124 H 218.1046895026711 19.473646301501176 90.06408758353817 H 0.0 **** 0.06
18125 H 217.9071444061934 18.244612892380758 91.33641956298749 H 0.0 **** 0.06
18126 C 188.85086034641392 182.18977050687676 185.69432492560267 C 0.0 **** -0.24
18127 H 188.2185961564836 182.44077872608108 184.8427050360575 H 0.0 **** 0.06
18128 H 188.40126574141968 181.36820146217926 186.25113418891385 H 0.0 **** 0.06
18129 H 188.9468123481633 183.06025444124498 186.34408835373478 H 0.0 **** 0.06
18130 H 189.8371550900832 181.89254736707633 185.33812322457027 H 0.0 **** 0.06
18131 C 95.50421639464204 68.04058639582249 61.62213590815014 C 0.0 **** -0.24
18132 H 96.50515432978952 67.71470973796411 61.905199900605595 H 0.0 **** 0.06
18133 H 95.17044878884687 68.8224009110505 62.304380598900536 H 0.0 **** 0.06
18134 H 94.81888431618003 67.1946215862026 61.67458638025272 H 0.0 **** 0.06
18135 H 95.52446848927966 68.43014952907302 60.60373225598647 H 0.0 **** 0.06
18136 C 237.51271445584877 204.92704334555594 31.785246863413676 C 0.0 **** -0.24
18137 H 236.51123917881657 205.10516707557923 31.39520486208866 H 0.0 **** 0.06
18138 H 237.45134107379553 204.29779503984594 32.673388997771184 H 0.0 **** 0.06
18139 H 237.976533016493 205.87884395236557 32.04527863501764 H 0.0 **** 0.06
18140 H 238.11423555988728 204.42646048902543 31.025445738226352 H 0.0 **** 0.06
18141 C 211.44261989271294 167.33221939937005 66.98583386068987 C 0.0 **** -0.24
18142 H 210.63106621087897 167.71321777164135 66.36519270883701 H 0.0 **** 0.06
18143 H 211.06900554688966 167.13337878017808 67.99037569607796 H 0.0 **** 0.06
18144 H 212.2402998235965 168.0732277813282 67.0345459890271 H 0.0 **** 0.06
18145 H 211.82894756080154 166.41020822777688 66.55169805394007 H 0.0 **** 0.06
18146 C 174.85709806056775 99.04075598379865 215.30346398746224 C 0.0 **** -0.24
18147 H 175.01707996470185 98.3470066798624 214.47778410529065 H 0.0 **** 0.06
18148 H 174.24237453630363 98.56230426366807 216.06605464544342 H 0.0 **** 0.06
18149 H 174.35063922303158 99.9321914920611 214.93386048876056 H 0.0 **** 0.06
18150 H 175.81876837271858 99.3206885377123 215.73390161175837 H 0.0 **** 0.06
18151 C 10.671756721247874 127.24197032618915 169.70414009337665 C 0.0 **** -0.24
18152 H 9.775485265820379 127.79740848796547 169.42805406502868 H 0.0 **** 0.06
18153 H 10.392739096938072 126.236071868084 170.02018287624895 H 0.0 **** 0.06
18154 H 11.177699092247195 127.75345376853971 170.52216977588412 H 0.0 **** 0.06
18155 H 11.340434834536012 127.18088942570776 168.8445568865558 H 0.0 **** 0.06
18156 C 170.79072413043303 59.65113230901454 194.8303818953386 C 0.0 **** -0.24
18157 H 171.3746379302116 60.55629267327399 194.66334310003222 H 0.0 **** 0.06
18158 H 170.53403088852536 59.57512024468883 195.88686110096194 H 0.0 **** 0.06
18159 H 171.37738022061035 58.78078312847455 194.53501853821342 H 0.0 **** 0.06
18160 H 169.87743151064964 59.6931179046567 194.23609713312834 H 0.0 **** 0.06
18161 C 146.27790818954495 247.07059971329215 117.5837018652602 C 0.0 **** -0.24
18162 H 145.55863986656925 247.2988765800392 118.3711504887591 H 0.0 **** 0.06
18163 H 145.99086380383295 247.59024319459223 116.66861566242457 H 0.0 **** 0.06
18164 H 146.2897803183088 245.99637485260024 117.40338670842465 H 0.0 **** 0.06
18165 H 147.27039365366778 247.39855039619746 117.89286609785376 H 0.0 **** 0.06
18166 C 3.4195320317076607 23.322431198398704 11.902762794450041 C 0.0 **** -0.24
18167 H 3.018020825885941 23.534065696175887 10.911559402746818 H 0.0 **** 0.06
18168 H 4.240128272572775 24.007798050894678 12.115869950833826 H 0.0 **** 0.06
18169 H 3.784369005967278 22.296323538489943 11.934678480521129 H 0.0 **** 0.06
18170 H 2.634024467858154 23.452278289946392 12.647551471711708 H 0.0 **** 0.06
18171 C 120.34506620844246 202.91845098499954 64.5057186801073 C 0.0 **** -0.24
18172 H 119.42291722928084 202.65048300822508 63.99063423399946 H 0.0 **** 0.06
18173 H 120.9538801362608 203.5479714274279 63.856653056138924 H 0.0 **** 0.06
18174 H 120.89791197528177 202.01191527298846 64.75571697595441 H 0.0 **** 0.06
18175 H 120.10600664680504 203.4604711848579 65.42000046695335 H 0.0 **** 0.06
18176 C 73.32714839193022 30.051298781911186 165.6113878145259 C 0.0 **** -0.24
18177 H 73.63306055597155 29.110274931132196 165.1554213479892 H 0.0 **** 0.06
18178 H 74.11620841126111 30.408708069813912 166.27361471193214 H 0.0 **** 0.06
18179 H 72.41338177830019 29.896664307158844 166.1856345640382 H 0.0 **** 0.06
18180 H 73.1448629331237 30.790422563617824 164.83061856186123 H 0.0 **** 0.06
18181 C 156.1050076955275 72.24557871096405 225.340791076684 C 0.0 **** -0.24
18182 H 156.63487555610723 72.1507886173116 226.28831018046085 H 0.0 **** 0.06
18183 H 155.55117965874734 73.18380770353312 225.32548017302776 H 0.0 **** 0.06
18184 H 155.41144172596734 71.41143381046095 225.22833613781708 H 0.0 **** 0.06
18185 H 156.82380523885615 72.23358624212065 224.52071860828465 H 0.0 **** 0.06
18186 C 85.94797113928104 238.17815694096487 233.5177374238094 C 0.0 **** -0.24
18187 H 86.41423281922229 238.23904229525874 232.53476306954946 H 0.0 **** 0.06
18188 H 86.4843190318523 237.4523828925407 234.12967740899228 H 0.0 **** 0.06
18189 H 84.90947651908363 237.86515428056146 233.4077745589335 H 0.0 **** 0.06
18190 H 85.98369061640025 239.15608133232024 233.99733055148752 H 0.0 **** 0.06
18191 C 125.47001906039179 94.38219209431364 241.6610973205543 C 0.0 **** -0.24
18192 H 125.52972764268773 93.3618759290105 242.0393384776575 H 0.0 **** 0.06
18193 H 126.4049342375045 94.64192303628292 241.1655228974053 H 0.0 **** 0.06
18194 H 125.29496754077269 95.06744428490356 242.49048382258826 H 0.0 **** 0.06
18195 H 124.64763227080189 94.45741580451823 240.94878633293501 H 0.0 **** 0.06
18196 C 19.22836160714678 80.57996454016444 248.24784444845847 C 0.0 **** -0.24
18197 H 18.648400371492755 80.96069472961423 247.40655551680197 H 0.0 **** 0.06
18198 H 19.70264220716838 79.64014447367896 247.9650517242967 H 0.0 **** 0.06
18199 H 18.567295037020642 80.41298922735496 249.09820425633035 H 0.0 **** 0.06
18200 H 19.99409507019061 81.3070106163645 248.51983129313274 H 0.0 **** 0.06
18201 C 201.9487795204459 48.291367649059936 140.47350427179433 C 0.0 **** -0.24
18202 H 202.4963068716672 47.452796217275676 140.04206791208992 H 0.0 **** 0.06
18203 H 201.5959447621403 48.02008895224256 141.46817409877653 H 0.0 **** 0.06
18204 H 201.09698729518072 48.53359218384199 139.8384760497809 H 0.0 **** 0.06
18205 H 202.60746381204942 49.15676041571879 140.54407288397843 H 0.0 **** 0.06
18206 C 29.055612316527657 53.88621199573163 100.46086615457403 C 0.0 **** -0.24
18207 H 28.98516268818483 54.94835188733845 100.69801649016605 H 0.0 **** 0.06
18208 H 29.057929938972705 53.754779013346734 99.37816740487946 H 0.0 **** 0.06
18209 H 28.200970705782964 53.362073167726976 100.88886355794165 H 0.0 **** 0.06
18210 H 29.976872737861612 53.481180965830305 100.87900687871229 H 0.0 **** 0.06
18211 C 152.82658307875042 179.70473713610227 236.84829909492925 C 0.0 **** -0.24
18212 H 152.6635134075238 180.32836948537317 237.72700640670914 H 0.0 **** 0.06
18213 H 152.26574196429 180.10876695092782 236.00528561606635 H 0.0 **** 0.06
18214 H 152.48938594109583 178.6888638206383 237.05713653920552 H 0.0 **** 0.06
18215 H 153.88954642054424 179.69110772200474 236.60484939946454 H 0.0 **** 0.06
18216 C 91.44446099309212 196.77078723716045 63.50000747532175 C 0.0 **** -0.24
18217 H 91.05635955295921 195.94826755763674 62.8987328094976 H 0.0 **** 0.06
18218 H 92.53361673758002 196.7668219942501 63.46018778415666 H 0.0 **** 0.06
18219 H 91.11812089205452 196.64954369872822 64.53254740405967 H 0.0 **** 0.06
18220 H 91.06809592977669 197.71603271984466 63.108230892616206 H 0.0 **** 0.06
18221 C 52.59747730044796 166.51622489574495 16.917891017630268 C 0.0 **** -0.24
18222 H 52.752892496281135 167.2983287688799 16.1742041040348 H 0.0 **** 0.06
18223 H 52.28177204413622 165.59981311494371 16.41929578303987 H 0.0 **** 0.06
18224 H 51.82634554563215 166.83223975777926 17.620824867885588 H 0.0 **** 0.06
18225 H 53.52835233139709 166.3361143045035 17.455463728313447 H 0.0 **** 0.06
18226 C 58.10628835479099 58.94265607063747 242.6659779600563 C 0.0 **** -0.24
18227 H 57.269295742721226 58.810428563161906 241.9801173138599 H 0.0 **** 0.06
18228 H 57.96425288863216 58.30740705891344 243.539551755611 H 0.0 **** 0.06
18229 H 58.15650956475474 59.985314010946865 242.97872516221724 H 0.0 **** 0.06
18230 H 59.034156642834205 58.66884218245323 242.1637151160155 H 0.0 **** 0.06
18231 C 182.52066264911076 64.24043900789388 189.1898214337104 C 0.0 **** -0.24
18232 H 182.2799056884865 63.79139911166064 188.2262173517052 H 0.0 **** 0.06
18233 H 181.943812427126 63.74980088844276 189.97394809979792 H 0.0 **** 0.06
18234 H 182.27383198444517 65.30268488714103 189.16737370459902 H 0.0 **** 0.06
18235 H 183.58508847910213 64.11996225975855 189.39095465668385 H 0.0 **** 0.06
18236 C 188.99859284673852 147.57300272334533 236.93651718226255 C 0.0 **** -0.24
18237 H 188.6875011147715 148.51031755719364 236.4738202852708 H 0.0 **** 0.06
18238 H 189.4465298363195 146.92655892945288 236.18177256023668 H 0.0 **** 0.06
18239 H 188.1318647873063 147.07745104939136 237.37258204805931 H 0.0 **** 0.06
18240 H 189.73009661783252 147.7802026929926 237.71773416666392 H 0.0 **** 0.06
18241 C 151.63612288070985 37.712915240607416 24.731691333237848 C 0.0 **** -0.24
18242 H 151.36230599790852 37.02981943554943 25.535284512405056 H 0.0 **** 0.06
18243 H 150.7954655138014 37.82424226298748 24.04738361917586 H 0.0 **** 0.06
18244 H 152.49385475175993 37.312215516837114 24.1910201368987 H 0.0 **** 0.06
18245 H 151.89357996804418 38.68469944382895 25.153221737695745 H 0.0 **** 0.06
18246 C 94.81953163526774 124.159772307911 193.8473831835597 C 0.0 **** -0.24
18247 H 94.0058130108483 123.49702192479495 194.1420821828528 H 0.0 **** 0.06
18248 H 95.17497125921247 123.87978767932964 192.8552456628908 H 0.0 **** 0.06
18249 H 95.63611741784626 124.07240028333067 194.56422093369048 H 0.0 **** 0.06
18250 H 94.46134791334143 125.18821137311576 193.82843424127424 H 0.0 **** 0.06
18251 C 126.14013302108265 97.98654917270986 96.61418822006883 C 0.0 **** -0.24
18252 H 126.92967781299936 97.68205923262289 95.92737422477333 H 0.0 **** 0.06
18253 H 125.19216029958213 98.03658340133694 96.07738203890901 H 0.0 **** 0.06
18254 H 126.37713990462703 98.96702640499115 97.02783143361333 H 0.0 **** 0.06
18255 H 126.06263608760645 97.25971038373567 97.42376353149771 H 0.0 **** 0.06
18256 C 9.14197478503857 202.5362312058674 18.373841248229468 C 0.0 **** -0.24
18257 H 8.74645881048994 202.7102459714007 19.374480315643808 H 0.0 **** 0.06
18258 H 8.93543200900885 201.50785641898023 18.076743701775655 H 0.0 **** 0.06
18259 H 10.218869411338488 202.7059903213327 18.374457435579785 H 0.0 **** 0.06
18260 H 8.666381537723993 203.22076621328173 17.672585631112696 H 0.0 **** 0.06
18261 C 25.89358798270051 57.997534298481526 124.639896704558 C 0.0 **** -0.24
18262 H 25.186787927635663 57.57396790893489 125.35283832675546 H 0.0 **** 0.06
18263 H 26.852411452034502 57.48783157604609 124.73089808811389 H 0.0 **** 0.06
18264 H 26.025171084222848 59.06012663280845 124.84544716789676 H 0.0 **** 0.06
18265 H 25.50902316190671 57.86901615195609 123.62786678472779 H 0.0 **** 0.06
18266 C 206.31136020978232 126.91780279797638 34.80605246925822 C 0.0 **** -0.24
18267 H 207.23521964626156 126.62685690718425 35.30623823648634 H 0.0 **** 0.06
18268 H 206.54033907927237 127.61415307715723 33.99927645558782 H 0.0 **** 0.06
18269 H 205.64566044137777 127.39783498760994 35.523031185724136 H 0.0 **** 0.06
18270 H 205.82615926102994 126.03219319469272 34.39519940177033 H 0.0 **** 0.06
18271 C 52.77139524499374 228.7083744311155 89.09199508146384 C 0.0 **** -0.24
18272 H 52.611363637083244 228.65026061359617 88.01488494411913 H 0.0 **** 0.06
18273 H 52.38450786207332 227.80564565470485 89.56528936957437 H 0.0 **** 0.06
18274 H 52.249996730017685 229.579767537468 89.48909106392244 H 0.0 **** 0.06
18275 H 53.83781266391614 228.79792428168275 89.29565231478281 H 0.0 **** 0.06
18276 C 134.5686866677821 31.420431471290982 163.8019962430853 C 0.0 **** -0.24
18277 H 134.62715963367154 30.95111888866701 164.78350231572915 H 0.0 **** 0.06
18278 H 134.22448037324241 32.448721069149215 163.91017708016713 H 0.0 **** 0.06
18279 H 133.869220377441 30.866467334407886 163.1755728902369 H 0.0 **** 0.06
18280 H 135.55474916181933 31.413968700562165 163.33695692801112 H 0.0 **** 0.06
18281 C 21.59347199787993 65.52795888313418 87.70962546452196 C 0.0 **** -0.24
18282 H 21.07590738009523 66.4869884333327 87.72088396189903 H 0.0 **** 0.06
18283 H 22.052991364728868 65.37493073774348 86.73317428469724 H 0.0 **** 0.06
18284 H 20.879719555597276 64.72726727848968 87.90494822372895 H 0.0 **** 0.06
18285 H 22.36450509941257 65.52272736671043 88.4801351384547 H 0.0 **** 0.06
18286 C 147.0499404184843 77.87610744222013 11.134260635563123 C 0.0 **** -0.24
18287 H 146.14122131910554 78.45343220652805 10.962251073508398 H 0.0 **** 0.06
18288 H 147.3602369843159 77.99076304586228 12.173010704657827 H 0.0 **** 0.06
18289 H 147.8399629563616 78.23725254814377 10.476787321427366 H 0.0 **** 0.06
18290 H 146.8563517317123 76.82348924083743 10.92633055716037 H 0.0 **** 0.06
18291 C 198.21732714206132 89.27076633305742 74.03997874274597 C 0.0 **** -0.24
18292 H 198.56472928554706 90.17209333656098 74.54419986969975 H 0.0 **** 0.06
18293 H 198.96166654154842 88.48185321695215 74.15447562744686 H 0.0 **** 0.06
18294 H 198.06948140514442 89.48063089023083 72.9810018462635 H 0.0 **** 0.06
18295 H 197.2746302267473 88.94800664322995 74.48206276117978 H 0.0 **** 0.06
18296 C 191.19326181260365 146.90390792866006 50.74676482257911 C 0.0 **** -0.24
18297 H 191.25737420218192 145.8650566968895 51.07221574036245 H 0.0 **** 0.06
18298 H 190.33656645531698 147.02313496079347 50.082781722225064 H 0.0 **** 0.06
18299 H 192.10641455230197 147.1753097842187 50.21629740263322 H 0.0 **** 0.06
18300 H 191.07264214757154 147.55017509795582 51.61618256526819 H 0.0 **** 0.06
18301 C 89.87413885590584 19.678062248530722 177.6729477542023 C 0.0 **** -0.24
18302 H 89.86565512381992 18.78757116661555 177.04435469897197 H 0.0 **** 0.06
18303 H 88.85810170342572 20.058621792399464 177.77745855354834 H 0.0 **** 0.06
18304 H 90.50312789557194 20.441049978102484 177.21443158142378 H 0.0 **** 0.06
18305 H 90.26956769434733 19.424342012312735 178.65679055169747 H 0.0 **** 0.06
18306 C 152.7570710222294 192.57500930660996 210.38585895713805 C 0.0 **** -0.24
18307 H 151.81459052886075 193.06036209600893 210.13221203879004 H 0.0 **** 0.06
18308 H 152.80338214753766 191.5984686381624 209.90459066947506 H 0.0 **** 0.06
18309 H 152.82286739944595 192.45228571663102 211.46687668370936 H 0.0 **** 0.06
18310 H 153.5867842522351 193.19107714546732 210.03879996220866 H 0.0 **** 0.06
18311 C 59.113853238331444 128.2479159854034 67.98991440959989 C 0.0 **** -0.24
18312 H 59.84486536739121 129.00899254177565 67.7171098807919 H 0.0 **** 0.06
18313 H 58.14413467971514 128.71825263780335 68.15530766082725 H 0.0 **** 0.06
18314 H 59.43491270022557 127.74705336854709 68.9039330321585 H 0.0 **** 0.06
18315 H 59.03136455671324 127.51786492375211 67.18523893100902 H 0.0 **** 0.06
18316 C 96.26265022817097 180.6708138719144 109.38538180182792 C 0.0 **** -0.24
18317 H 95.98608933241303 179.61673338100454 109.41951338321641 H 0.0 **** 0.06
18318 H 95.42746641798104 181.25372253297462 108.99693223478766 H 0.0 **** 0.06
18319 H 97.12850884527103 180.7977638951063 108.73552403566035 H 0.0 **** 0.06
18320 H 96.509901622592 181.01318289380833 110.39039611654633 H 0.0 **** 0.06
18321 C 234.02729516016643 78.01906132251867 148.9633474720058 C 0.0 **** -0.24
18322 H 234.27118256483024 78.53793848010997 148.036048165924 H 0.0 **** 0.06
18323 H 233.193197274731 78.52203111834459 149.45243812735913 H 0.0 **** 0.06
18324 H 234.895247423246 78.02874858130701 149.62283029780212 H 0.0 **** 0.06
18325 H 233.75166195919527 76.98808413779929 148.74157968391853 H 0.0 **** 0.06
18326 C 188.92845383880467 119.48045426306109 230.86619554988835 C 0.0 **** -0.24
18327 H 187.90247022015438 119.13372016396264 230.7496510015767 H 0.0 **** 0.06
18328 H 188.93409180211148 120.56525069196226 230.98316782689423 H 0.0 **** 0.06
18329 H 189.50753058150093 119.20690558975332 229.98406300852204 H 0.0 **** 0.06
18330 H 189.37016687820204 119.01803649941849 231.74854070096183 H 0.0 **** 0.06
18331 C 150.282648993549 52.623208897206496 232.24921057453076 C 0.0 **** -0.24
18332 H 150.25555087376353 51.85371169984168 233.02008366038683 H 0.0 **** 0.06
18333 H 151.2804929502284 53.06097494794858 232.20828502270143 H 0.0 **** 0.06
18334 H 149.55426800681536 53.400189749781106 232.48393269519346 H 0.0 **** 0.06
18335 H 150.04078219209538 52.17869961418123 231.28344376859812 H 0.0 **** 0.06
18336 C 168.0584500782953 179.47297125257714 46.819979054867645 C 0.0 **** -0.24
18337 H 167.15098694569414 179.61513502522996 47.407436032538314 H 0.0 **** 0.06
18338 H 167.80268035992128 179.4324711309327 45.76138274073607 H 0.0 **** 0.06
18339 H 168.53723840517767 178.53892743451433 47.11458634705015 H 0.0 **** 0.06
18340 H 168.74007733111404 180.3041642882123 46.99927766147128 H 0.0 **** 0.06
18341 C 12.322783916151764 152.62397526391928 200.07205154196504 C 0.0 **** -0.24
18342 H 11.78652162677075 152.630065895693 199.1226505525213 H 0.0 **** 0.06
18343 H 13.01618101244 151.78345562900245 200.09133300384678 H 0.0 **** 0.06
18344 H 11.610411540634644 152.52727568964264 200.89113783554893 H 0.0 **** 0.06
18345 H 12.876795814598125 153.55587874160122 200.18138262703036 H 0.0 **** 0.06
18346 C 121.19388126744306 169.1828016634549 167.85506857787672 C 0.0 **** -0.24
18347 H 121.27862386552115 169.08528472588864 168.93782003465518 H 0.0 **** 0.06
18348 H 121.83231682431486 168.44151941392332 167.37333188040114 H 0.0 **** 0.06
18349 H 121.50768328598954 170.182594395191 167.5559375860586 H 0.0 **** 0.06
18350 H 120.15890198347964 169.0212246348317 167.55629224081613 H 0.0 **** 0.06
18351 C 13.155403072211868 50.643359182178244 76.66201896600325 C 0.0 **** -0.24
18352 H 13.583269669249546 49.650503457391395 76.52454442167434 H 0.0 **** 0.06
18353 H 13.458665829285465 51.038592653579016 77.63158060588361 H 0.0 **** 0.06
18354 H 12.068315582363937 50.579516083423286 76.61882853538825 H 0.0 **** 0.06
18355 H 13.512888518820134 51.303924973585595 75.87175915739306 H 0.0 **** 0.06
18356 C 147.64803004584186 94.4118792059773 37.65992683390975 C 0.0 **** -0.24
18357 H 146.861306556672 93.67233774217567 37.505699213340534 H 0.0 **** 0.06
18358 H 147.2989604919254 95.17284319335246 38.357912382091754 H 0.0 **** 0.06
18359 H 147.89823714790077 94.87956154455858 36.707033756320044 H 0.0 **** 0.06
18360 H 148.53179720477348 93.92203767877581 38.06798988081974 H 0.0 **** 0.06
18361 C 196.21136909059948 7.641111836302002 48.88186136677484 C 0.0 **** -0.24
18362 H 196.96914575231722 8.297784734166129 48.45421804884246 H 0.0 **** 0.06
18363 H 196.5266709709144 6.602954110395302 48.774015011130075 H 0.0 **** 0.06
18364 H 195.26567775706545 7.789336790302826 48.359300512796636 H 0.0 **** 0.06
18365 H 196.0834898282047 7.874870376763482 49.93832783499461 H 0.0 **** 0.06
18366 C 149.7067338881655 162.52679357189683 91.36041762676703 C 0.0 **** -0.24
18367 H 150.1555605587731 162.2877122254818 92.32514935651571 H 0.0 **** 0.06
18368 H 150.4897520994582 162.60278807011187 90.60572239719718 H 0.0 **** 0.06
18369 H 149.17691240424784 163.47699952538423 91.43193976444871 H 0.0 **** 0.06
18370 H 149.00672176696824 161.7398554441775 91.08083941580821 H 0.0 **** 0.06
18371 C 99.21940428330475 89.72339749659074 100.81124565683726 C 0.0 **** -0.24
18372 H 100.14841086161778 89.51920995812426 100.27870852389066 H 0.0 **** 0.06
18373 H 98.74920969348523 88.78197361805499 101.0952803326214 H 0.0 **** 0.06
18374 H 98.54629677345991 90.28621264168092 100.16540283504978 H 0.0 **** 0.06
18375 H 99.43533966252579 90.30652154681167 101.70707534686062 H 0.0 **** 0.06
18376 C 73.5692857723887 124.51502967717721 111.9026673752754 C 0.0 **** -0.24
18377 H 72.81028708679614 124.10190528883467 112.56653618606882 H 0.0 **** 0.06
18378 H 74.17329869497883 125.23996659313542 112.44780260691707 H 0.0 **** 0.06
18379 H 73.08486178996108 125.00581380771334 111.05813737700285 H 0.0 **** 0.06
18380 H 74.20852481299303 123.7108530212173 111.53750449441148 H 0.0 **** 0.06
18381 C 63.95008394621374 160.5217341172442 203.98109068972258 C 0.0 **** -0.24
18382 H 63.864459168283986 161.51084523771038 204.4323391461906 H 0.0 **** 0.06
18383 H 65.00317924962505 160.26073476369822 203.87855199470584 H 0.0 **** 0.06
18384 H 63.47942524468601 160.53005610226353 202.99809949040338 H 0.0 **** 0.06
18385 H 63.453258499805656 159.78852795802123 204.61613538822513 H 0.0 **** 0.06
18386 C 58.995086784108764 41.86678275807894 234.55906605734748 C 0.0 **** -0.24
18387 H 59.30568369445368 42.57225688748234 233.78817541378476 H 0.0 **** 0.06
18388 H 57.948716301902635 41.60196417019627 234.40899776269296 H 0.0 **** 0.06
18389 H 59.117912815016496 42.32495069421107 235.54091201597492 H 0.0 **** 0.06
18390 H 59.61091719045896 40.9698794430696 234.498132353136 H 0.0 **** 0.06
18391 C 45.22159690355019 187.14361735219262 48.09417449724063 C 0.0 **** -0.24
18392 H 45.39016885971748 188.21666579868844 47.997903494316574 H 0.0 **** 0.06
18393 H 44.26822018352581 186.8839704997921 47.63296205146746 H 0.0 **** 0.06
18394 H 45.20232271473745 186.87161359182198 49.148630760375084 H 0.0 **** 0.06
18395 H 46.02598483986807 186.6041473451192 47.59400979467361 H 0.0 **** 0.06
18396 C 232.5863337884288 34.64285004483534 61.635906619113996 C 0.0 **** -0.24
18397 H 233.0626613952856 35.60179939825518 61.430936569362984 H 0.0 **** 0.06
18398 H 231.6008044678157 34.620061391474025 61.169384146477654 H 0.0 **** 0.06
18399 H 232.48247371317487 34.511419389454844 62.71251315230057 H 0.0 **** 0.06
18400 H 233.19960815206696 33.839122744387694 61.229396418768744 H 0.0 **** 0.06
18401 C 120.96511629759237 94.36311424373599 195.1413237398366 C 0.0 **** -0.24
18402 H 121.11897667659932 95.39704730425564 194.83079517579895 H 0.0 **** 0.06
18403 H 121.78631460456597 94.05186462598292 195.78676667500966 H 0.0 **** 0.06
18404 H 120.9300137878196 93.72098685956058 194.26203664693122 H 0.0 **** 0.06
18405 H 120.02447399800087 94.28462304771293 195.68682146636309 H 0.0 **** 0.06
18406 C 167.28349137024833 196.47841609508168 58.64702805402999 C 0.0 **** -0.24
18407 H 166.50690312875793 195.78695942348685 58.9724553636112 H 0.0 **** 0.06
18408 H 168.12912185405344 196.42307980688196 59.332631839115976 H 0.0 **** 0.06
18409 H 166.88591079456972 197.49338771571337 58.640404916410546 H 0.0 **** 0.06
18410 H 167.61064826693394 196.21038475469328 57.642884575458766 H 0.0 **** 0.06
18411 C 1.6757300199945746 49.35070279118371 193.26452017586644 C 0.0 **** -0.24
18412 H 1.3948766753518953 50.370043551608134 193.00093076924182 H 0.0 **** 0.06
18413 H 0.8153808719362416 48.69279375959921 193.13799496925284 H 0.0 **** 0.06
18414 H 2.006255873821516 49.32162709472183 194.30197659248608 H 0.0 **** 0.06
18415 H 2.486080240774328 49.01879648007922 192.61501244296363 H 0.0 **** 0.06
18416 C 159.9179506950355 1.6062527216965066 48.05073549921369 C 0.0 **** -0.24
18417 H 159.14706467279936 1.280600961591091 47.3529244698816 H 0.0 **** 0.06
18418 H 160.0326921768698 0.8618871319215486 48.838238402943006 H 0.0 **** 0.06
18419 H 159.6286235038455 2.5608037433984236 48.49090898501356 H 0.0 **** 0.06
18420 H 160.862518810578 1.7235567483421619 47.51952611490847 H 0.0 **** 0.06
18421 C 35.62861330571414 178.5535228435396 40.421910269954324 C 0.0 **** -0.24
18422 H 35.317260203586386 177.71277366069398 41.0410286889215 H 0.0 **** 0.06
18423 H 36.42474695779512 179.10107757415466 40.92630653644497 H 0.0 **** 0.06
18424 H 34.77896117313978 179.21701257410763 40.256579651709316 H 0.0 **** 0.06
18425 H 35.992887712647416 178.18442266613016 39.46326237686388 H 0.0 **** 0.06
18426 C 193.7174913604022 180.21297724803492 125.41027944567776 C 0.0 **** -0.24
18427 H 193.46624864199958 181.08160740928906 124.80232854295784 H 0.0 **** 0.06
18428 H 194.16189490574783 179.4429006061349 124.77893719831513 H 0.0 **** 0.06
18429 H 192.81216580399575 179.82233297588556 125.87648141136987 H 0.0 **** 0.06
18430 H 194.4277502795583 180.50390889758683 126.18352688444892 H 0.0 **** 0.06
18431 C 73.09523634887236 93.75326529119508 127.6713805571604 C 0.0 **** -0.24
18432 H 72.98333088579304 94.0784084330019 126.63570652514616 H 0.0 **** 0.06
18433 H 72.88765837113695 94.59003752301459 128.33860180064335 H 0.0 **** 0.06
18434 H 74.11456971689935 93.40250896418917 127.83320161402796 H 0.0 **** 0.06
18435 H 72.3953522761349 92.94329411504432 127.87475838122259 H 0.0 **** 0.06
18436 C 150.17921410006724 6.36377847370278 124.76991144710004 C 0.0 **** -0.24
18437 H 149.8186661341442 6.676033119788656 123.78942647700404 H 0.0 **** 0.06
18438 H 150.84111618399558 5.504589119003668 124.65572359592292 H 0.0 **** 0.06
18439 H 149.33233569648345 6.090126485167133 125.39789561226709 H 0.0 **** 0.06
18440 H 150.7263174554436 7.1848461216110024 125.2340950458061 H 0.0 **** 0.06
18441 C 71.77962708880315 25.45524160852976 180.8486070325745 C 0.0 **** -0.24
18442 H 70.88760040119578 26.02776600837862 181.10377908072053 H 0.0 **** 0.06
18443 H 72.11502932897551 24.89853970478015 181.72497391885653 H 0.0 **** 0.06
18444 H 72.56744857157733 26.1343111388326 180.52502947193707 H 0.0 **** 0.06
18445 H 71.54612900453506 24.759175369059292 180.04335241585136 H 0.0 **** 0.06
18446 C 199.9502363595741 208.7141210884872 8.18791344340994 C 0.0 **** -0.24
18447 H 200.22341108842502 207.80179819337252 8.716941854003721 H 0.0 **** 0.06
18448 H 200.79731886038212 209.40029802667638 8.18474828167038 H 0.0 **** 0.06
18449 H 199.1029286620559 209.18443543385536 8.687475909001165 H 0.0 **** 0.06
18450 H 199.67652626683218 208.47009456923962 7.160938067738442 H 0.0 **** 0.06
18451 C 218.0078005327024 15.490658019955418 25.40202106981583 C 0.0 **** -0.24
18452 H 217.71088623107798 16.526682599426493 25.563883769042448 H 0.0 **** 0.06
18453 H 219.06734873704454 15.45258349426885 25.147004379804557 H 0.0 **** 0.06
18454 H 217.42182842038648 15.068648199503485 24.58547837956074 H 0.0 **** 0.06
18455 H 217.8306357484867 14.91575636587865 26.31090021197096 H 0.0 **** 0.06
18456 C 240.4732801969239 230.7269099061574 1.2659917431956274 C 0.0 **** -0.24
18457 H 239.5222151601597 231.05001939404025 1.6877595835737793 H 0.0 **** 0.06
18458 H 240.29666018728994 230.2258101211849 0.3137596517941432 H 0.0 **** 0.06
18459 H 240.96000675666664 230.03667732974304 1.9549168581271346 H 0.0 **** 0.06
18460 H 241.11433431773344 231.5937592815003 1.1072078059443697 H 0.0 **** 0.06
18461 C 72.15809747404705 182.3441478441924 227.10914678874036 C 0.0 **** -0.24
18462 H 72.46975336139704 183.13985631942336 227.78483916482597 H 0.0 **** 0.06
18463 H 72.08282246890505 181.4069724498072 227.66200259048856 H 0.0 **** 0.06
18464 H 72.89327848658968 182.23705759065652 226.3114262063674 H 0.0 **** 0.06
18465 H 71.18786761399721 182.59227347455987 226.67851787456948 H 0.0 **** 0.06
18466 C 87.14247899802643 222.14200903691784 223.68119683134947 C 0.0 **** -0.24
18467 H 87.13156942482055 222.17853479275453 224.7710428894162 H 0.0 **** 0.06
18468 H 86.98201315882628 223.14414965321092 223.28266769055796 H 0.0 **** 0.06
18469 H 86.34821440655176 221.4803930340915 223.33318446348514 H 0.0 **** 0.06
18470 H 88.1055611041254 221.76341944011511 223.34014795788337 H 0.0 **** 0.06
18471 C 60.489020606469126 25.27981654217635 25.18791341747007 C 0.0 **** -0.24
18472 H 60.325642070684154 24.202084280796583 25.21982276934571 H 0.0 **** 0.06
18473 H 59.79095551778087 25.7310604697644 24.48214672246249 H 0.0 **** 0.06
18474 H 61.51102184519564 25.482232931274012 24.86913193656497 H 0.0 **** 0.06
18475 H 60.327240289971314 25.70115866797883 26.179525993283818 H 0.0 **** 0.06
18476 C 24.721834376123283 144.26828183295785 144.9543194037274 C 0.0 **** -0.24
18477 H 25.234672651697664 144.72385682839334 144.10711582862263 H 0.0 **** 0.06
18478 H 25.351176667280967 144.3375099960107 145.84122937938986 H 0.0 **** 0.06
18479 H 24.517556270780986 143.22088915846072 144.73369392093778 H 0.0 **** 0.06
18480 H 23.782423422190334 144.79146187555384 145.13340115446445 H 0.0 **** 0.06
18481 C 86.40683887019475 95.9147045856187 219.39193565802242 C 0.0 **** -0.24
18482 H 87.09882876452178 95.07512365622398 219.32803404973768 H 0.0 **** 0.06
18483 H 86.78351096600858 96.64288291443822 220.10989110071534 H 0.0 **** 0.06
18484 H 85.42944079579277 95.5564265491169 219.71569394060054 H 0.0 **** 0.06
18485 H 86.31547634731774 96.38500682048968 218.41197786130644 H 0.0 **** 0.06
18486 C 61.641023121039154 67.92605998009131 230.88668338709445 C 0.0 **** -0.24
18487 H 62.635726279039716 67.93306050705331 231.3328831111701 H 0.0 **** 0.06
18488 H 61.48539599671102 68.85145752792445 230.3322493112347 H 0.0 **** 0.06
18489 H 60.890824573133784 67.8414203535684 231.67232378354527 H 0.0 **** 0.06
18490 H 61.55455334730078 67.07629097625528 230.20887648523694 H 0.0 **** 0.06
18491 C 57.73014697548143 119.59959231142616 55.19658051112273 C 0.0 **** -0.24
18492 H 57.59973745550138 118.52419676925908 55.31968761590983 H 0.0 **** 0.06
18493 H 57.746075049251715 119.84490026450848 54.13428917567518 H 0.0 **** 0.06
18494 H 58.6694902306391 119.90704651076041 55.65521623254173 H 0.0 **** 0.06
18495 H 56.90289775786678 120.12249796319131 55.67665340320829 H 0.0 **** 0.06
18496 C 13.632899266842486 229.16976233626062 130.8487654547847 C 0.0 **** -0.24
18497 H 13.291762282246594 228.59971320172312 129.98474745229765 H 0.0 **** 0.06
18498 H 14.589105538147493 229.6401621975872 130.61933331312432 H 0.0 **** 0.06
18499 H 13.751088195069912 228.50101779020815 131.70121584985586 H 0.0 **** 0.06
18500 H 12.897777415383956 229.93902466292013 131.08843380901303 H 0.0 **** 0.06
18501 C 123.95353310365678 77.22622847379014 104.85639130348645 C 0.0 **** -0.24
18502 H 125.02514532844117 77.41997058832982 104.84250670336687 H 0.0 **** 0.06
18503 H 123.68079743802477 76.63498204944594 103.98151102378378 H 0.0 **** 0.06
18504 H 123.4127550283959 78.17275183505834 104.83866633838963 H 0.0 **** 0.06
18505 H 123.6944644971245 76.67686993782277 105.76148700295192 H 0.0 **** 0.06
18506 C 48.14901557561332 174.67174098207988 195.20165897727952 C 0.0 **** -0.24
18507 H 47.073240579888946 174.60601342528057 195.03626059657967 H 0.0 **** 0.06
18508 H 48.67309140258753 174.47391009192995 194.26584646960976 H 0.0 **** 0.06
18509 H 48.44677411254338 173.93410050991056 195.9473371675477 H 0.0 **** 0.06
18510 H 48.40192454801924 175.6703536250422 195.55669475245224 H 0.0 **** 0.06
18511 C 60.93692397555347 200.3019492406612 236.8955907246364 C 0.0 **** -0.24
18512 H 61.53337410837355 201.0528767552562 236.37965211018567 H 0.0 **** 0.06
18513 H 61.19929817926797 199.3108591351468 236.52423677245068 H 0.0 **** 0.06
18514 H 59.87906973116904 200.4894012947174 236.7132210786088 H 0.0 **** 0.06
18515 H 61.13579590134114 200.35249198421778 237.96577806827017 H 0.0 **** 0.06
18516 C 214.8403761400874 157.306493312921 22.487232733104264 C 0.0 **** -0.24
18517 H 215.23717088740656 157.53127246719455 23.47652885433979 H 0.0 **** 0.06
18518 H 214.47116938180696 156.28071888817783 22.467770563235746 H 0.0 **** 0.06
18519 H 215.63063790918508 157.42240031464016 21.745200067536985 H 0.0 **** 0.06
18520 H 214.02433299457002 157.99156172726782 22.25811394765151 H 0.0 **** 0.06
18521 C 139.15131071568143 69.65914717080139 162.9896706612979 C 0.0 **** -0.24
18522 H 139.58471558926476 70.63486914007498 163.21056074429566 H 0.0 **** 0.06
18523 H 139.6149400192852 68.90371081345626 163.62333329926918 H 0.0 **** 0.06
18524 H 139.3260301701902 69.41392120934444 161.94230018975193 H 0.0 **** 0.06
18525 H 138.07886945103485 69.6876016493494 163.1829105312269 H 0.0 **** 0.06
18526 C 113.25274878081288 119.02282574672034 80.82005528377564 C 0.0 **** -0.24
18527 H 113.99598737336112 119.73065258167833 80.45524695083586 H 0.0 **** 0.06
18528 H 112.76801986139083 119.4302997803996 81.70640473015544 H 0.0 **** 0.06
18529 H 113.740601823389 118.08115286116066 81.07175382267678 H 0.0 **** 0.06
18530 H 112.50632783141523 118.84893110810611 80.04438138368911 H 0.0 **** 0.06
18531 C 45.602708731824706 112.72030423749268 141.99410785781814 C 0.0 **** -0.24
18532 H 46.17207351745941 113.64807017277187 141.93573250756134 H 0.0 **** 0.06
18533 H 46.28369167435345 111.88683968141663 142.16516524733746 H 0.0 **** 0.06
18534 H 45.06395746098953 112.56484280500285 141.0599299461943 H 0.0 **** 0.06
18535 H 44.89116510411117 112.78283572500916 142.81763263027815 H 0.0 **** 0.06
18536 C 3.905736389120193 145.35535659802818 93.92543068599073 C 0.0 **** -0.24
18537 H 4.37130228203327 146.32751911643436 94.09214607592432 H 0.0 **** 0.06
18538 H 4.044257819796485 144.73067320564738 94.80830103271617 H 0.0 **** 0.06
18539 H 4.36962552808879 144.87514279500212 93.06305712849925 H 0.0 **** 0.06
18540 H 2.8410503099613607 145.49045961102408 93.73746715654644 H 0.0 **** 0.06
18541 C 155.88479205126177 167.79832610307588 188.9532471323061 C 0.0 **** -0.24
18542 H 155.81144643639263 168.59844722181182 188.21704459225577 H 0.0 **** 0.06
18543 H 155.9538213273464 166.83801580082022 188.44116836685652 H 0.0 **** 0.06
18544 H 154.9984671171828 167.80754798110976 189.58939071593568 H 0.0 **** 0.06
18545 H 156.773240521347 167.94930753662433 189.5658224213842 H 0.0 **** 0.06
18546 C 5.339963859290862 8.789132580800711 46.394784037436224 C 0.0 **** -0.24
18547 H 5.579715790608219 9.781411663117723 46.01147761662149 H 0.0 **** 0.06
18548 H 4.311247736467095 8.780092716417983 46.756909708851865 H 0.0 **** 0.06
18549 H 6.015445516667015 8.542738243666875 47.21337179705094 H 0.0 **** 0.06
18550 H 5.451956752990583 8.055019274501504 45.596811722429706 H 0.0 **** 0.06
18551 C 212.81847055074752 117.9832490090107 72.2601194215654 C 0.0 **** -0.24
18552 H 212.95366890209556 118.38290734905411 73.26429478933937 H 0.0 **** 0.06
18553 H 212.28345885097013 117.03482817875542 72.31516472461499 H 0.0 **** 0.06
18554 H 213.79300687876616 117.82271465791047 71.79856093048261 H 0.0 **** 0.06
18555 H 212.2455123784584 118.69063383457205 71.660964010898 H 0.0 **** 0.06
18556 C 219.76497160833867 208.3696053357657 60.932585151080985 C 0.0 **** -0.24
18557 H 220.13353410628065 208.44285770754885 61.95606614757341 H 0.0 **** 0.06
18558 H 218.78555371475636 208.8423930312947 60.86584726561446 H 0.0 **** 0.06
18559 H 219.68382120984336 207.3203205251013 60.65000319570984 H 0.0 **** 0.06
18560 H 220.45944881338178 208.87452340419082 60.260680596333145 H 0.0 **** 0.06
18561 C 215.19907598012406 93.66452012373549 174.53583823235095 C 0.0 **** -0.24
18562 H 214.22367141656184 94.10336707709254 174.32124122176387 H 0.0 **** 0.06
18563 H 215.1207682917959 93.014467303598 175.4074618949531 H 0.0 **** 0.06
18564 H 215.91801298115607 94.45862784202058 174.73648490139072 H 0.0 **** 0.06
18565 H 215.53106247576545 93.08204041965493 173.67570629944836 H 0.0 **** 0.06
18566 C 6.267101948274302 207.054164713973 215.23474232071948 C 0.0 **** -0.24
18567 H 7.252098874221858 206.86475967144935 214.80839932212902 H 0.0 **** 0.06
18568 H 6.354325301700712 207.7858846256344 216.0375938771 H 0.0 **** 0.06
18569 H 5.858858395685957 206.12477629867152 215.63269200474585 H 0.0 **** 0.06
18570 H 5.603270892331196 207.4395212519001 214.46045927003786 H 0.0 **** 0.06
18571 C 56.75745545536131 175.46427405285544 179.57389010757234 C 0.0 **** -0.24
18572 H 56.53203627092711 176.05998926432687 180.45753094618962 H 0.0 **** 0.06
18573 H 57.51838235245634 174.72258772250825 179.8212162786432 H 0.0 **** 0.06
18574 H 57.127867365249614 176.11497901192678 178.78114635851185 H 0.0 **** 0.06
18575 H 55.853356145001726 174.95808099540727 179.2364133099161 H 0.0 **** 0.06
18576 C 170.11690043129747 134.39638945656858 163.39900412347853 C 0.0 **** -0.24
18577 H 169.70342637084485 134.2159496926583 164.39103701485135 H 0.0 **** 0.06
18578 H 170.402934617608 135.4449563965387 163.3100524702976 H 0.0 **** 0.06
18579 H 169.36805067250438 134.15774785175347 162.64453293048146 H 0.0 **** 0.06
18580 H 170.99477189138594 133.76690427834373 163.25161794986695 H 0.0 **** 0.06
18581 C 9.882355702198737 75.11316909457071 194.92478254774997 C 0.0 **** -0.24
18582 H 9.426964054193121 74.82748594674067 195.8729498084158 H 0.0 **** 0.06
18583 H 9.106382176321205 75.22212414410043 194.16704482659958 H 0.0 **** 0.06
18584 H 10.587971753214191 74.34179551741195 194.61434193575826 H 0.0 **** 0.06
18585 H 10.40942398984103 76.05972153527938 195.04572083361768 H 0.0 **** 0.06
18586 C 211.92485943045165 105.79582493605662 149.56598219879683 C 0.0 **** -0.24
18587 H 211.3803041479311 106.65983680839312 149.9462736576354 H 0.0 **** 0.06
18588 H 212.8320641247193 105.65019332527939 150.15251834189914 H 0.0 **** 0.06
18589 H 212.19034999293035 105.9644492991464 148.52187245168048 H 0.0 **** 0.06
18590 H 211.29706196024057 104.90872905636098 149.64189526289675 H 0.0 **** 0.06
18591 C 34.33615507177646 244.13960863584427 226.47020215876657 C 0.0 **** -0.24
18592 H 34.42337144498376 243.22042307687042 225.8901730304878 H 0.0 **** 0.06
18593 H 33.392548171189475 244.63052523658774 226.23382857906137 H 0.0 **** 0.06
18594 H 35.164618284053375 244.80381649334907 226.2231268634942 H 0.0 **** 0.06
18595 H 34.36589463283141 243.90132433074893 227.53414376075182 H 0.0 **** 0.06
18596 C 157.07537628832628 219.14707637631247 48.82548952553353 C 0.0 **** -0.24
18597 H 156.6529443921856 218.19541272842577 48.503686543491625 H 0.0 **** 0.06
18598 H 158.15633280651832 219.1288569196409 48.689966032713954 H 0.0 **** 0.06
18599 H 156.842499855362 219.3101174436918 49.877639583154476 H 0.0 **** 0.06
18600 H 156.6468295830686 219.95320351792094 48.230369942823955 H 0.0 **** 0.06
18601 C 13.187266754377902 207.06233203338735 158.13818628714233 C 0.0 **** -0.24
18602 H 14.133422535104785 207.25495409615328 157.6326751139904 H 0.0 **** 0.06
18603 H 12.871017162678015 206.03861312055423 157.9376835355115 H 0.0 **** 0.06
18604 H 12.431573095983595 207.75523011866443 157.77041476715596 H 0.0 **** 0.06
18605 H 13.315886032303354 207.19954279253108 159.21204096174768 H 0.0 **** 0.06
18606 C 109.5971004992534 212.96689304362422 53.75394243319761 C 0.0 **** -0.24
18607 H 108.75006534605717 213.33394980626952 53.17494472609977 H 0.0 **** 0.06
18608 H 110.00571319482307 213.7810445883894 54.35496616384333 H 0.0 **** 0.06
18609 H 110.36523398215573 212.59385526766692 53.07713276203529 H 0.0 **** 0.06
18610 H 109.26752430887365 212.1616325517316 54.409442723641064 H 0.0 **** 0.06
18611 C 67.48154849293829 146.5821852359129 42.001146113687554 C 0.0 **** -0.24
18612 H 67.18930648646847 145.5925247600927 41.64895961654943 H 0.0 **** 0.06
18613 H 68.24729530049854 146.48093696518978 42.77072664290333 H 0.0 **** 0.06
18614 H 66.6125986366801 147.09133096383994 42.416383793441724 H 0.0 **** 0.06
18615 H 67.87812228069635 147.16169752207324 41.16688337341057 H 0.0 **** 0.06
18616 C 228.25370431807858 119.55814621451958 124.26586997538422 C 0.0 **** -0.24
18617 H 227.2194849401079 119.75756277719353 124.54665438186899 H 0.0 **** 0.06
18618 H 228.82599965828683 120.48514431748802 124.31042484976317 H 0.0 **** 0.06
18619 H 228.28483849830624 119.15879880805292 123.25268052118878 H 0.0 **** 0.06
18620 H 228.6832627215582 118.8317342086624 124.95637613283424 H 0.0 **** 0.06
18621 C 43.68186105729194 26.86165783200559 121.63923014033003 C 0.0 **** -0.24
18622 H 43.324912620923385 25.96969009260991 122.15510507174389 H 0.0 **** 0.06
18623 H 42.98840575248653 27.68428761150605 121.81410311116747 H 0.0 **** 0.06
18624 H 43.74750322015831 26.661526028980774 120.57019369186685 H 0.0 **** 0.06
18625 H 44.66784178886377 27.130904726384784 122.02025073386389 H 0.0 **** 0.06
18626 C 223.05036118094705 15.965602405659382 194.79424498815592 C 0.0 **** -0.24
18627 H 223.50440244628055 15.415634383001134 195.6186303796555 H 0.0 **** 0.06
18628 H 222.03419953094723 16.250305089346583 195.0644679294155 H 0.0 **** 0.06
18629 H 223.02756432917099 15.333885822390954 193.90562412297794 H 0.0 **** 0.06
18630 H 223.6372046107518 16.860338920543413 194.58875552918562 H 0.0 **** 0.06
18631 C 87.2093444867067 46.48883825832635 88.55870101463512 C 0.0 **** -0.24
18632 H 87.54982032906878 45.55720646070539 88.10561054496344 H 0.0 **** 0.06
18633 H 86.23353981577566 46.75509187643988 88.15093167255105 H 0.0 **** 0.06
18634 H 87.92389915097385 47.281230253616684 88.34062509562682 H 0.0 **** 0.06
18635 H 87.12903055853025 46.35838727813989 89.63768237663209 H 0.0 **** 0.06
18636 C 102.9654745829296 10.412756458668511 39.36417008604812 C 0.0 **** -0.24
18637 H 103.17028483949528 9.348656991239807 39.48050429520285 H 0.0 **** 0.06
18638 H 103.88996421989211 10.936201325951885 39.11975864168417 H 0.0 **** 0.06
18639 H 102.55843437098449 10.807610940896538 40.2955952214854 H 0.0 **** 0.06
18640 H 102.24158338145787 10.557731070823039 38.5621093267508 H 0.0 **** 0.06
18641 C 35.12769886934777 60.866000063217115 183.86304211325034 C 0.0 **** -0.24
18642 H 35.796620540764835 60.04567288186732 183.60395009013223 H 0.0 **** 0.06
18643 H 35.45598933422934 61.32003328698829 184.79878555319368 H 0.0 **** 0.06
18644 H 34.1131533287172 60.48548149764133 183.9802749317836 H 0.0 **** 0.06
18645 H 35.14657846606433 61.61411070359145 183.0705450473904 H 0.0 **** 0.06
18646 C 170.9290182032655 210.58791898476676 40.372680281440964 C 0.0 **** -0.24
18647 H 171.35534863836003 209.72299162839266 40.88177124227009 H 0.0 **** 0.06
18648 H 171.70306751176096 211.0792888391167 39.782788844102484 H 0.0 **** 0.06
18649 H 170.5358996473936 211.2865699272262 41.11105297068393 H 0.0 **** 0.06
18650 H 170.12339077546935 210.26164264782295 39.7160732801116 H 0.0 **** 0.06
18651 C 145.27641427733502 54.75107101178372 89.71344582988033 C 0.0 **** -0.24
18652 H 145.3822439216367 55.63752820294272 90.33868922413325 H 0.0 **** 0.06
18653 H 145.34513979354207 55.03685951868289 88.66329426336836 H 0.0 **** 0.06
18654 H 144.3088168726174 54.286913963348184 89.90172768354196 H 0.0 **** 0.06
18655 H 146.07086580122365 54.04290198356853 89.95015869061496 H 0.0 **** 0.06
18656 C 73.08849572014063 175.98443914712266 120.78558992280549 C 0.0 **** -0.24
18657 H 73.87383370001135 176.60174621723564 121.22123060362489 H 0.0 **** 0.06
18658 H 72.20008803020337 176.59267617379294 120.61583402668356 H 0.0 **** 0.06
18659 H 72.84675883591049 175.16946591342267 121.46769803310377 H 0.0 **** 0.06
18660 H 73.4352153394558 175.57344360378173 119.8365199806218 H 0.0 **** 0.06
18661 C 106.91154560060767 120.00756057042312 248.59860186797587 C 0.0 **** -0.24
18662 H 106.22955663281815 120.84861410045411 248.72831535302487 H 0.0 **** 0.06
18663 H 107.93698609419684 120.37654167454039 248.54927309849114 H 0.0 **** 0.06
18664 H 106.6691452545133 119.48229704379068 247.6757411788081 H 0.0 **** 0.06
18665 H 106.81015364804537 119.32544638544724 249.44275853603492 H 0.0 **** 0.06
18666 C 83.82132201300794 46.77142885580804 213.81885296516734 C 0.0 **** -0.24
18667 H 84.64429719071481 46.05679068824561 213.8529956907022 H 0.0 **** 0.06
18668 H 83.30761765305635 46.687434784465125 212.86098324589682 H 0.0 **** 0.06
18669 H 84.21449465189244 47.78165992853549 213.93329957373882 H 0.0 **** 0.06
18670 H 83.12240267908876 46.558751399280695 214.6274873871481 H 0.0 **** 0.06
18671 C 6.196837243918878 26.430455327772705 136.15934730890757 C 0.0 **** -0.24
18672 H 6.844649229047107 27.007260968408985 136.8196513725621 H 0.0 **** 0.06
18673 H 5.495207439801689 25.84859910145778 136.75761608244702 H 0.0 **** 0.06
18674 H 6.803938658218669 25.75765507903091 135.55327283201368 H 0.0 **** 0.06
18675 H 5.645496589046829 27.108101168556203 135.5083264527478 H 0.0 **** 0.06
18676 C 144.2433458570949 118.65461128566375 167.26026503490638 C 0.0 **** -0.24
18677 H 145.20332278496628 118.58879545032858 167.772285681307 H 0.0 **** 0.06
18678 H 143.43658536208193 118.55018114048858 167.98546322396191 H 0.0 **** 0.06
18679 H 144.17249256422807 117.85753298403907 166.5198033098779 H 0.0 **** 0.06
18680 H 144.16359299619165 119.62104058324405 166.76233083766533 H 0.0 **** 0.06
18681 C 4.483975728743388 145.23878200646473 6.8288370767824915 C 0.0 **** -0.24
18682 H 4.885401738708907 144.29345788740716 6.462726377038223 H 0.0 **** 0.06
18683 H 5.100004930355823 145.60034466410733 7.6522276507384674 H 0.0 **** 0.06
18684 H 3.462446601137941 145.08794888029325 7.176785594722645 H 0.0 **** 0.06
18685 H 4.488838308375108 145.971451444891 6.021692467437646 H 0.0 **** 0.06
18686 C 156.0578609160213 203.34208773331304 244.78538732600515 C 0.0 **** -0.24
18687 H 156.480343086086 204.26161802750164 244.38077094029484 H 0.0 **** 0.06
18688 H 156.84991581819378 202.60236242663004 244.90773553968432 H 0.0 **** 0.06
18689 H 155.30309657482158 202.95624742910664 244.1004905357425 H 0.0 **** 0.06
18690 H 155.60034211703993 203.5475626272503 245.7533306038116 H 0.0 **** 0.06
18691 C 39.36016559505654 192.17307962922018 48.40181355230703 C 0.0 **** -0.24
18692 H 38.94042967113619 193.16910428767287 48.261748565134056 H 0.0 **** 0.06
18693 H 38.98974271788141 191.50999078029417 47.61988219877742 H 0.0 **** 0.06
18694 H 39.0621005389943 191.78760226652008 49.376543252641056 H 0.0 **** 0.06
18695 H 40.44779259269626 192.2268552642871 48.34942778449212 H 0.0 **** 0.06
18696 C 127.73011974585415 181.8023461544258 169.19784134449358 C 0.0 **** -0.24
18697 H 128.1599978360624 181.02810901861733 169.83332954577082 H 0.0 **** 0.06
18698 H 128.4749194275433 182.57846751325513 169.018292878846 H 0.0 **** 0.06
18699 H 126.86256863117754 182.23851123610655 169.69217083548534 H 0.0 **** 0.06
18700 H 127.42511291792397 181.36358580108617 168.24754414824645 H 0.0 **** 0.06
18701 C 246.38530996569148 56.64602342602089 134.57785905741 C 0.0 **** -0.24
18702 H 247.2515131663162 55.99846723739722 134.4421993130035 H 0.0 **** 0.06
18703 H 246.11603627105484 57.09642223059666 133.6217580288355 H 0.0 **** 0.06
18704 H 246.62710088760366 57.43094596646188 135.29402197067895 H 0.0 **** 0.06
18705 H 245.54692950196747 56.058025131478786 134.9510423510352 H 0.0 **** 0.06
18706 C 168.55222423075313 84.71108692177776 53.04554405556249 C 0.0 **** -0.24
18707 H 167.81336268167186 84.80480202781152 53.841175035095574 H 0.0 **** 0.06
18708 H 169.54489976593237 84.91783732231389 53.44535791450846 H 0.0 **** 0.06
18709 H 168.32321236086364 85.42334236826946 52.25290648975704 H 0.0 **** 0.06
18710 H 168.52559225296153 83.69804675223008 52.64347823172179 H 0.0 **** 0.06
18711 C 217.4793888954702 19.62634484320975 97.62961608465844 C 0.0 **** -0.24
18712 H 218.0981650487727 19.640270642193997 98.52782916095936 H 0.0 **** 0.06
18713 H 218.05655762024085 20.005277267968523 96.78547447259595 H 0.0 **** 0.06
18714 H 216.6028966202888 20.254765052052477 97.78303670892441 H 0.0 **** 0.06
18715 H 217.16275389622115 18.603955139388944 97.42380515730181 H 0.0 **** 0.06
18716 C 197.45379288998657 219.32058700291907 84.05935798312063 C 0.0 **** -0.24
18717 H 197.33155613011303 218.32417976310657 83.63296336490862 H 0.0 **** 0.06
18718 H 198.49518895903503 219.46582651097842 84.34951707427422 H 0.0 **** 0.06
18719 H 196.81369302674506 219.4216520579234 84.93535317778029 H 0.0 **** 0.06
18720 H 197.17505849613212 220.06856957084494 83.31653243619184 H 0.0 **** 0.06
18721 C 11.826732355754643 18.905749811488278 116.13153544811738 C 0.0 **** -0.24
18722 H 11.338629053812468 18.053208587839677 115.66009808208614 H 0.0 **** 0.06
18723 H 12.272472272637984 19.538948507777874 115.36347951232139 H 0.0 **** 0.06
18724 H 12.604921577401242 18.550635511036788 116.8068716123204 H 0.0 **** 0.06
18725 H 11.090859845198935 19.480088448910266 116.69346012045418 H 0.0 **** 0.06
18726 C 150.75080119920617 240.35150404982744 48.81030491285148 C 0.0 **** -0.24
18727 H 151.76725482239402 240.57821620280765 49.1321514620449 H 0.0 **** 0.06
18728 H 150.1200433841983 241.22908120390716 48.954317039672134 H 0.0 **** 0.06
18729 H 150.35960514133666 239.52259802914992 49.39886757467244 H 0.0 **** 0.06
18730 H 150.75662656898544 240.0780570090268 47.754813388742065 H 0.0 **** 0.06
18731 C 43.301933471448166 31.76118169347771 77.22372522574022 C 0.0 **** -0.24
18732 H 43.24012546150075 30.918993005738642 76.53424748360874 H 0.0 **** 0.06
18733 H 44.042082226576156 32.47376784197172 76.86049339233486 H 0.0 **** 0.06
18734 H 43.595731795446056 31.40221283461507 78.21007073911744 H 0.0 **** 0.06
18735 H 42.32931449142751 32.249143882432165 77.28945797218768 H 0.0 **** 0.06
18736 C 29.70733451015019 214.05221231315943 5.403564958630383 C 0.0 **** -0.24
18737 H 30.73331264646572 214.3117623997469 5.143328178583928 H 0.0 **** 0.06
18738 H 29.63207083710205 212.97578217565018 5.554237111220999 H 0.0 **** 0.06
18739 H 29.04017091503175 214.35431445990693 4.5969581222623646 H 0.0 **** 0.06
18740 H 29.424956453776645 214.56863738097238 6.321118964645905 H 0.0 **** 0.06
18741 C 159.0067316010317 54.69829097473297 155.00354302527157 C 0.0 **** -0.24
18742 H 159.75464862072008 54.00060901485011 154.626239980738 H 0.0 **** 0.06
18743 H 158.01088522876105 54.28397253096614 154.84514225971222 H 0.0 **** 0.06
18744 H 159.09527398293255 55.646446761730886 154.4737275726846 H 0.0 **** 0.06
18745 H 159.16712275710353 54.86116134017098 156.0692683601448 H 0.0 **** 0.06
18746 C 135.8942774279351 3.796203908871462 80.73127587887848 C 0.0 **** -0.24
18747 H 135.97567591334933 4.129878787044831 79.69707477377824 H 0.0 **** 0.06
18748 H 135.85973754729366 4.663179265197883 81.39076681434273 H 0.0 **** 0.06
18749 H 136.75858837849157 3.180906883536707 80.9831681770363 H 0.0 **** 0.06
18750 H 134.9832679431599 3.209868262373476 80.85418968805587 H 0.0 **** 0.06
18751 C 59.398749411010925 153.28843149653164 23.45567096917499 C 0.0 **** -0.24
18752 H 59.06307648472253 152.44167755262887 22.857971209665337 H 0.0 **** 0.06
18753 H 58.58638950591498 154.0085973716731 23.5534772380433 H 0.0 **** 0.06
18754 H 60.24939194262171 153.7627397426817 22.967127694059783 H 0.0 **** 0.06
18755 H 59.69540507697272 152.93943639334532 24.44502146716023 H 0.0 **** 0.06
18756 C 248.22285277181584 143.57118841033017 232.8840094899096 C 0.0 **** -0.24
18757 H 248.51225305048217 144.62148382315368 232.92787975696203 H 0.0 **** 0.06
18758 H 247.53784857867103 143.41801097309377 232.0492780897151 H 0.0 **** 0.06
18759 H 247.72892106865856 143.29208731305275 233.81547695190307 H 0.0 **** 0.06
18760 H 249.110066782486 142.95506774783522 232.74352396800523 H 0.0 **** 0.06
18761 C 111.84585691727827 93.84040588463796 65.48401012308943 C 0.0 **** -0.24
18762 H 110.93095436383638 93.78873601634152 64.89485301415732 H 0.0 **** 0.06
18763 H 112.16945710516384 92.83129220905914 65.74170197426992 H 0.0 **** 0.06
18764 H 111.6595870710425 94.40662154896722 66.39674005989124 H 0.0 **** 0.06
18765 H 112.62473741102173 94.33444571007513 64.90264758358305 H 0.0 **** 0.06
18766 C 180.71219905213215 161.43234448174522 242.2508977013734 C 0.0 **** -0.24
18767 H 181.7557487671234 161.70555547782538 242.0908810642822 H 0.0 **** 0.06
18768 H 180.07018287070855 162.2595217820431 241.9460542698685 H 0.0 **** 0.06
18769 H 180.55139574731885 161.2159397282769 243.3065907627667 H 0.0 **** 0.06
18770 H 180.47399521819295 160.54930868586317 241.65767321711735 H 0.0 **** 0.06
18771 C 202.91441483819563 243.2666639402755 160.35900171720505 C 0.0 **** -0.24
18772 H 202.10635848416737 243.74324864361432 160.91266452431591 H 0.0 **** 0.06
18773 H 202.53272115381023 242.89545426509085 159.4068337189211 H 0.0 **** 0.06
18774 H 203.31184157951066 242.43455259211228 160.94041315625833 H 0.0 **** 0.06
18775 H 203.7061207915786 243.99220630966954 160.17500304180842 H 0.0 **** 0.06
18776 C 116.9133790144196 197.98904919195542 48.13969458303991 C 0.0 **** -0.24
18777 H 117.09692624651333 196.9536102462064 47.8555746134341 H 0.0 **** 0.06
18778 H 117.22767092447307 198.14338966718077 49.17244537218244 H 0.0 **** 0.06
18779 H 115.84985604711744 198.2082493187288 48.0470675477313 H 0.0 **** 0.06
18780 H 117.47919687742515 198.65200229079124 47.48505811544547 H 0.0 **** 0.06
18781 C 47.17846800901289 90.57947233917471 194.345455684628 C 0.0 **** -0.24
18782 H 46.803484795230816 90.5122785742478 193.32447666879483 H 0.0 **** 0.06
18783 H 47.56701013504154 91.58297727155255 194.52366189113366 H 0.0 **** 0.06
18784 H 47.97666068962663 89.85024253457598 194.4874729900618 H 0.0 **** 0.06
18785 H 46.369243732976045 90.37332841110432 195.0453544717633 H 0.0 **** 0.06
18786 C 36.10727419589277 80.94980925512851 15.207459837196467 C 0.0 **** -0.24
18787 H 36.47614756409985 80.76565916109394 14.197741181402279 H 0.0 **** 0.06
18788 H 35.03826907125942 81.16050416726938 15.170768277781661 H 0.0 **** 0.06
18789 H 36.632227836092255 81.804086997762 15.635561213444788 H 0.0 **** 0.06
18790 H 36.28451073301005 80.06893807576725 15.82444180084562 H 0.0 **** 0.06
18791 C 199.72176595382092 117.42347109584207 34.26667449300854 C 0.0 **** -0.24
18792 H 199.54837281523305 117.05538972080959 33.25537656877755 H 0.0 **** 0.06
18793 H 198.86035902309342 118.00562614867977 34.593537093993135 H 0.0 **** 0.06
18794 H 200.61182439227483 118.05283996413104 34.27689094286232 H 0.0 **** 0.06
18795 H 199.86592745999934 116.57815410688522 34.939821000794595 H 0.0 **** 0.06
18796 C 156.89486989687475 182.86588492641607 155.61626582627432 C 0.0 **** -0.24
18797 H 157.41975658070396 182.18209667073296 154.9495821275835 H 0.0 **** 0.06
18798 H 157.54807192096666 183.70281548359944 155.86507888118544 H 0.0 **** 0.06
18799 H 156.61318518360954 182.3398879203989 156.52848534021874 H 0.0 **** 0.06
18800 H 155.99846074489028 183.23906778063863 155.12054134328324 H 0.0 **** 0.06
18801 C 98.69212346774876 159.48279340139305 52.0347079668185 C 0.0 **** -0.24
18802 H 99.60701870175828 159.86927571475172 52.48322184183489 H 0.0 **** 0.06
18803 H 97.92278063084458 160.25545097808848 52.05361427961098 H 0.0 **** 0.06
18804 H 98.34982370119079 158.614786687661 52.59844707912539 H 0.0 **** 0.06
18805 H 98.88877493538476 159.19099924055666 51.002804414023416 H 0.0 **** 0.06
18806 C 121.36066780248109 28.462930170487 159.46098588020502 C 0.0 **** -0.24
18807 H 121.00133078407765 29.374446605088593 158.98278480204544 H 0.0 **** 0.06
18808 H 122.10619203840486 27.98818464176125 158.82188660731703 H 0.0 **** 0.06
18809 H 120.52521753700302 27.779346399251864 159.61441553022684 H 0.0 **** 0.06
18810 H 121.80977997208961 28.70890165871087 160.42256106850695 H 0.0 **** 0.06
18811 C 221.44648952510377 187.5178024558171 34.32916349345234 C 0.0 **** -0.24
18812 H 222.07510556159738 186.6979015569088 33.98356842504138 H 0.0 **** 0.06
18813 H 220.86577488798292 187.19205282362884 35.192653079221984 H 0.0 **** 0.06
18814 H 220.77122989983584 187.82030098531274 33.52861390117076 H 0.0 **** 0.06
18815 H 222.07565706796302 188.36306643452465 34.61130281385529 H 0.0 **** 0.06
18816 C 68.49802094484932 140.31376813000927 214.30523835067387 C 0.0 **** -0.24
18817 H 67.6242274768469 140.68601378397193 213.77156456864594 H 0.0 **** 0.06
18818 H 69.18119668592755 139.84123178647482 213.59890564726226 H 0.0 **** 0.06
18819 H 68.18431643980409 139.58391606091865 215.05083341445828 H 0.0 **** 0.06
18820 H 69.00234317681881 141.14391088867157 214.79964977232902 H 0.0 **** 0.06
18821 C 37.96684726480588 97.70068668247887 118.84157588913544 C 0.0 **** -0.24
18822 H 38.669414332846344 97.90219198129876 118.03171866857181 H 0.0 **** 0.06
18823 H 38.090711532383295 98.45056714546371 119.62325773568224 H 0.0 **** 0.06
18824 H 38.16144095259111 96.71006262505853 119.2523396179424 H 0.0 **** 0.06
18825 H 36.9477668810154 97.74166558208054 118.45579553809225 H 0.0 **** 0.06
18826 C 91.56128585919467 165.36829034630443 94.66926601017221 C 0.0 **** -0.24
18827 H 91.11975570095308 164.6894515212455 93.9400434566964 H 0.0 **** 0.06
18828 H 92.41181042562499 165.88130105380685 94.21933206635265 H 0.0 **** 0.06
18829 H 91.89692034489886 164.8004328622193 95.53750960915423 H 0.0 **** 0.06
18830 H 90.81754119345183 166.10152479833056 94.98005801869897 H 0.0 **** 0.06
18831 C 202.49060968087502 67.29595350671926 158.81126009977743 C 0.0 **** -0.24
18832 H 202.14955539020895 68.32151354306146 158.6680359516109 H 0.0 **** 0.06
18833 H 201.64609215253716 66.66863939435194 159.09684672351645 H 0.0 **** 0.06
18834 H 203.2455137813967 67.2700037640434 159.59680193463936 H 0.0 **** 0.06
18835 H 202.92144678654853 66.92384285872825 157.88053852768095 H 0.0 **** 0.06
18836 C 147.54275598537544 166.55247183770328 111.17350320188893 C 0.0 **** -0.24
18837 H 146.6050259263296 166.72195278730962 110.64457588132507 H 0.0 **** 0.06
18838 H 147.95269332633447 167.5088408408718 111.4986851179647 H 0.0 **** 0.06
18839 H 148.25158571408937 166.0606817814358 110.50625247007272 H 0.0 **** 0.06
18840 H 147.36144672950903 165.91998079842466 112.04195676918454 H 0.0 **** 0.06
18841 C 123.29565981335898 180.23344436818277 236.05997884021411 C 0.0 **** -0.24
18842 H 124.17573210064484 179.78798149407476 235.5948915609103 H 0.0 **** 0.06
18843 H 122.73566517497284 179.4627019015029 236.58995301700173 H 0.0 **** 0.06
18844 H 122.6648695006512 180.67729312160745 235.289490398449 H 0.0 **** 0.06
18845 H 123.60841976725817 181.0054076607475 236.76247328636208 H 0.0 **** 0.06
18846 C 5.830898855155283 123.00125476706984 92.67642551751464 C 0.0 **** -0.24
18847 H 5.443666073392052 123.82131823417791 92.07212158143736 H 0.0 **** 0.06
18848 H 6.907924058797761 123.1182368940301 92.79988186446562 H 0.0 **** 0.06
18849 H 5.623230140263161 122.05452984776576 92.17764580463233 H 0.0 **** 0.06
18850 H 5.349305240304744 123.01076322506503 93.6531049568481 H 0.0 **** 0.06
18851 C 140.9065880656431 145.50887764678268 68.09218846299706 C 0.0 **** -0.24
18852 H 140.6066887497698 146.50156568274886 68.42594349229839 H 0.0 **** 0.06
18853 H 140.18970510167802 144.7715612003304 68.45475273544164 H 0.0 **** 0.06
18854 H 141.89620835112615 145.27772588748118 68.48566923629622 H 0.0 **** 0.06
18855 H 140.93452731304419 145.48509364344469 67.00284219669564 H 0.0 **** 0.06
18856 C 52.40649761782859 1.1938209855645425 231.48286994141552 C 0.0 **** -0.24
18857 H 53.19459784207288 1.8055823798792687 231.0418227565244 H 0.0 **** 0.06
18858 H 52.82867510179088 0.24546111635119416 231.81814940447308 H 0.0 **** 0.06
18859 H 51.63334528955622 1.0053426143343103 230.73814586635697 H 0.0 **** 0.06
18860 H 51.9726087729091 1.7199001192352767 232.33264036625994 H 0.0 **** 0.06
18861 C 23.90986130687756 7.109152860955149 154.90495033587817 C 0.0 **** -0.24
18862 H 22.84249519809393 7.166412849739217 155.12292848077763 H 0.0 **** 0.06
18863 H 24.067467479691942 7.234683431133504 153.83380518334025 H 0.0 **** 0.06
18864 H 24.292037709171126 6.137113518606569 155.21791405732196 H 0.0 **** 0.06
18865 H 24.433726996346792 7.89680570594814 155.4459478390709 H 0.0 **** 0.06
18866 C 116.17302799108242 169.25639840846202 118.83669236919894 C 0.0 **** -0.24
18867 H 116.44369204366507 168.3074776419085 118.37439494120085 H 0.0 **** 0.06
18868 H 116.04987298064205 169.11569208002066 119.91113136424573 H 0.0 **** 0.06
18869 H 115.23792362930197 169.61632218640204 118.40773167817883 H 0.0 **** 0.06
18870 H 116.96163517122491 169.98698922208445 118.65394566783232 H 0.0 **** 0.06
18871 C 174.5008819563456 15.20285716611086 44.64640982718018 C 0.0 **** -0.24
18872 H 175.5735258212585 15.069184949365479 44.787173629347734 H 0.0 **** 0.06
18873 H 174.24726123215078 15.025621202828432 43.60069594573858 H 0.0 **** 0.06
18874 H 174.2230978715381 16.22053925136909 44.920651953976034 H 0.0 **** 0.06
18875 H 173.96127342395704 14.496270655740119 45.27656433099466 H 0.0 **** 0.06
18876 C 167.69438048411322 27.721369936261667 81.79865893228671 C 0.0 **** -0.24
18877 H 168.41127804096536 28.43270090661879 81.38741481752808 H 0.0 **** 0.06
18878 H 166.69333178629512 27.973453779004615 81.44890929528466 H 0.0 **** 0.06
18879 H 167.72190753754361 27.767043125007874 82.88763909566907 H 0.0 **** 0.06
18880 H 167.95312599683757 26.715162855008145 81.47022533133784 H 0.0 **** 0.06
18881 C 56.542152675328424 132.62973770759365 15.630748615749042 C 0.0 **** -0.24
18882 H 56.14829476091995 133.60504344957982 15.91759740356703 H 0.0 **** 0.06
18883 H 55.988837181546614 131.84766695908368 16.150348341062312 H 0.0 **** 0.06
18884 H 57.59634492115157 132.56981330057343 15.899345587359036 H 0.0 **** 0.06
18885 H 56.433965928651276 132.49754573438207 14.554158870161743 H 0.0 **** 0.06
18886 C 187.1530334965862 161.39306018140076 223.62128145662712 C 0.0 **** -0.24
18887 H 186.1943377601326 161.81425327611652 223.9236776030715 H 0.0 **** 0.06
18888 H 186.98563203059706 160.59191148290188 222.90039721134548 H 0.0 **** 0.06
18889 H 187.6659585668158 160.99284299307246 224.49589888425405 H 0.0 **** 0.06
18890 H 187.76440940129993 162.17083245410896 223.16504648218836 H 0.0 **** 0.06
18891 C 62.45045409591276 244.12005328789115 248.34572181965174 C 0.0 **** -0.24
18892 H 61.5035319293371 244.65828575054002 248.38662163544058 H 0.0 **** 0.06
18893 H 63.1244184860538 244.5151305718453 249.10635018951945 H 0.0 **** 0.06
18894 H 62.89871981787803 244.24782876543495 247.3611448420306 H 0.0 **** 0.06
18895 H 62.27476818748181 243.0607682273581 248.5313428970564 H 0.0 **** 0.06
18896 C 131.55072741639583 120.28541488259938 162.97258257785938 C 0.0 **** -0.24
18897 H 131.4767873312396 119.21218554644986 163.1507629190416 H 0.0 **** 0.06
18898 H 132.60096036638288 120.57218148518066 162.91675034893643 H 0.0 **** 0.06
18899 H 131.07040238496552 120.82303817794039 163.78931669182322 H 0.0 **** 0.06
18900 H 131.05608539150012 120.53315596417983 162.03331094810454 H 0.0 **** 0.06
18901 C 115.55230627031077 6.4207504607717 147.01660336487882 C 0.0 **** -0.24
18902 H 115.93566858936725 7.426194308995264 146.843062106218 H 0.0 **** 0.06
18903 H 115.27834196856293 6.313204417655825 148.06624281802098 H 0.0 **** 0.06
18904 H 116.32119080605347 5.690475091822023 146.7632419020359 H 0.0 **** 0.06
18905 H 114.67337743057948 6.254251244354464 146.3927174073468 H 0.0 **** 0.06
18906 C 72.99651030301968 145.9954732094946 52.8189827749851 C 0.0 **** -0.24
18907 H 73.58536378694134 146.91317202166178 52.84555434822073 H 0.0 **** 0.06
18908 H 73.63960043288697 145.1452834852743 53.046721854222184 H 0.0 **** 0.06
18909 H 72.5647995414063 145.8696024200185 51.826531303773294 H 0.0 **** 0.06
18910 H 72.19823976236151 146.05611868470368 53.559106984224 H 0.0 **** 0.06
18911 C 157.1157973073244 13.788070791411627 56.37636431461837 C 0.0 **** -0.24
18912 H 156.40771499297983 13.160635733320447 56.91970055871158 H 0.0 **** 0.06
18913 H 158.03003996650676 13.893378087352488 56.96033546213843 H 0.0 **** 0.06
18914 H 156.67544274041978 14.770752352498306 56.20904017171253 H 0.0 **** 0.06
18915 H 157.34849311653306 13.325300144528995 55.41729781123533 H 0.0 **** 0.06
18916 C 60.19022088663212 15.9110768117243 64.53817180646072 C 0.0 **** -0.24
18917 H 59.38824071470992 16.451670600188535 65.04165739379053 H 0.0 **** 0.06
18918 H 60.476600509310884 15.046416999320343 65.13696283055506 H 0.0 **** 0.06
18919 H 61.05051150766403 16.568936835222175 64.41494110597768 H 0.0 **** 0.06
18920 H 59.84434582737589 15.577705429931697 63.559771819973435 H 0.0 **** 0.06
18921 C 26.359280039777005 37.766833944526326 141.5190368310203 C 0.0 **** -0.24
18922 H 27.019744003729443 37.238651429334624 142.20683269716116 H 0.0 **** 0.06
18923 H 26.946353406936893 38.44891072400935 140.90448439858 H 0.0 **** 0.06
18924 H 25.62136009242529 38.33163505483091 142.08781571227658 H 0.0 **** 0.06
18925 H 25.85077693595636 37.04591193440106 140.87868800405914 H 0.0 **** 0.06
18926 C 164.56249992340284 93.08410479269389 23.58903901353503 C 0.0 **** -0.24
18927 H 164.16163117922306 92.22955653201507 24.133712387623945 H 0.0 **** 0.06
18928 H 164.1863494815028 93.07166416654621 22.56613987695866 H 0.0 **** 0.06
18929 H 165.65111855927742 93.02943124646242 23.577129387955353 H 0.0 **** 0.06
18930 H 164.25048563124636 94.00647232754329 24.079749507693435 H 0.0 **** 0.06
18931 C 198.30363087516247 199.2912699443783 239.43726188912706 C 0.0 **** -0.24
18932 H 197.91512901980357 198.2728399304404 239.470355621331 H 0.0 **** 0.06
18933 H 199.18450368885323 199.36410918751125 240.07492174938147 H 0.0 **** 0.06
18934 H 197.53915633692696 199.98251584215905 239.79228211388573 H 0.0 **** 0.06
18935 H 198.57411183922005 199.54413948561455 238.41257920542924 H 0.0 **** 0.06
18936 C 81.015032323815 51.10584002146854 246.9107158431231 C 0.0 **** -0.24
18937 H 81.25828639404128 50.486397677928665 247.77459443399826 H 0.0 **** 0.06
18938 H 80.7776269698185 50.46497017318488 246.06124005760844 H 0.0 **** 0.06
18939 H 81.87018333183417 51.73556144070311 246.66446747200536 H 0.0 **** 0.06
18940 H 80.15634624603652 51.73411087669869 247.1440664504232 H 0.0 **** 0.06
18941 C 159.793827548208 208.02592967844063 48.09620578628616 C 0.0 **** -0.24
18942 H 160.6811141409977 208.47507885161951 47.64932426114635 H 0.0 **** 0.06
18943 H 159.4931632888467 207.15687587438572 47.51100747978475 H 0.0 **** 0.06
18944 H 158.98379366704896 208.75518556452812 48.105345400507105 H 0.0 **** 0.06
18945 H 160.0181774613264 207.71846055125903 49.11658140401235 H 0.0 **** 0.06
18946 C 159.5104268417317 223.10345058874594 149.263796328535 C 0.0 **** -0.24
18947 H 160.03183636923333 223.06992126387706 148.3075879566297 H 0.0 **** 0.06
18948 H 160.20072519669824 222.83385522026822 150.06385138849032 H 0.0 **** 0.06
18949 H 158.6782140096751 222.39986276049484 149.24874519568922 H 0.0 **** 0.06
18950 H 159.1303189157439 224.11093949696897 149.4348537458713 H 0.0 **** 0.06
18951 C 168.14644079553878 121.60451431604542 53.14672402789785 C 0.0 **** -0.24
18952 H 168.14711662834168 122.11149131583127 54.111189385177966 H 0.0 **** 0.06
18953 H 168.71680332850107 120.67925663868834 53.222383602051394 H 0.0 **** 0.06
18954 H 168.60143445024818 122.25170703138 52.39682341203424 H 0.0 **** 0.06
18955 H 167.12023263585021 121.37731833645594 52.85634431434305 H 0.0 **** 0.06
18956 C 198.2245936812472 180.77830519978835 158.32717837720958 C 0.0 **** -0.24
18957 H 197.43107911506195 181.4382677618497 157.97551856068395 H 0.0 **** 0.06
18958 H 198.94058719464505 180.61082125088885 157.52239332059196 H 0.0 **** 0.06
18959 H 197.79411907201614 179.82570729794045 158.63467375845238 H 0.0 **** 0.06
18960 H 198.73056778970414 181.23894054466479 159.17484448856186 H 0.0 **** 0.06
18961 C 117.00407706343586 245.4604621811821 144.87063522566913 C 0.0 **** -0.24
18962 H 117.76980239705131 246.17068816725674 144.55634022858754 H 0.0 **** 0.06
18963 H 116.97901609751744 245.41210295733725 145.959806430662 H 0.0 **** 0.06
18964 H 117.23522246433996 244.47562522782624 144.46653061831486 H 0.0 **** 0.06
18965 H 116.03214381659751 245.7870886333326 144.4990783577872 H 0.0 **** 0.06
18966 C 64.21739925728588 153.5274610668484 237.91399158288112 C 0.0 **** -0.24
18967 H 64.14870002886266 154.5038672685278 238.3929372043287 H 0.0 **** 0.06
18968 H 65.12136364930188 153.02020434241774 238.2533462312091 H 0.0 **** 0.06
18969 H 64.2561705129493 153.65493492075007 236.83235404129562 H 0.0 **** 0.06
18970 H 63.34434952934893 152.93014865147296 238.17921343736612 H 0.0 **** 0.06
18971 C 46.54812240701236 63.27010025965538 109.25190481213744 C 0.0 **** -0.24
18972 H 45.7220063692059 62.74916492124433 109.73697516206224 H 0.0 **** 0.06
18973 H 46.814158243689434 62.750065439746294 108.33098499996936 H 0.0 **** 0.06
18974 H 47.40799333045297 63.28972586923359 109.92067785958153 H 0.0 **** 0.06
18975 H 46.24503261373761 64.29017468425147 109.01827197238529 H 0.0 **** 0.06
18976 C 245.69080662799524 117.79375432277254 147.1450283461484 C 0.0 **** -0.24
18977 H 245.24788693402306 117.75671920428931 148.13968763555374 H 0.0 **** 0.06
18978 H 246.36028028332112 116.94252559210327 147.0142909787083 H 0.0 **** 0.06
18979 H 246.25426452634315 118.72064680992901 147.0316833139291 H 0.0 **** 0.06
18980 H 244.90179038485064 117.75412833735834 146.3943328592276 H 0.0 **** 0.06
18981 C 164.22668427301934 114.02559030668448 189.084892347899 C 0.0 **** -0.24
18982 H 163.47606306611445 114.77823099689212 189.3270851815512 H 0.0 **** 0.06
18983 H 165.0819230199161 114.13810153691603 189.7506509155311 H 0.0 **** 0.06
18984 H 164.5496967511506 114.15390888930605 188.05245211424486 H 0.0 **** 0.06
18985 H 163.79688655751633 113.03098927447431 189.20953300363962 H 0.0 **** 0.06
18986 C 131.29880235077331 156.02330564890343 121.40439417634218 C 0.0 **** -0.24
18987 H 132.0381388378708 155.54398792457584 122.04494209262356 H 0.0 **** 0.06
18988 H 131.75951270105375 156.28698727781986 120.45276896983407 H 0.0 **** 0.06
18989 H 130.9274638162796 156.925351217566 121.89086005914078 H 0.0 **** 0.06
18990 H 130.47005469932225 155.3374718710191 121.23029672512959 H 0.0 **** 0.06
18991 C 22.335053623607365 173.10873635233938 170.72656496372153 C 0.0 **** -0.24
18992 H 21.408273972458375 172.55746286883252 170.5697798022571 H 0.0 **** 0.06
18993 H 22.153325245086393 174.1735292499262 170.5824245956484 H 0.0 **** 0.06
18994 H 23.086274118126568 172.76827446352226 170.0129298652651 H 0.0 **** 0.06
18995 H 22.692972526196826 172.93457903978535 171.74175158097015 H 0.0 **** 0.06
18996 C 158.53294633237755 0.339180356043812 93.65093852446569 C 0.0 **** -0.24
18997 H 158.0616122331245 -0.5554539288549734 93.24406848145742 H 0.0 **** 0.06
18998 H 159.29600468885081 0.6955294307772135 92.9580129417879 H 0.0 **** 0.06
18999 H 158.9943135497642 0.10307873324771322 94.60974188365307 H 0.0 **** 0.06
19000 H 157.77938306409297 1.1148942079229869 93.79205905238749 H 0.0 **** 0.06
19001 C 6.872378069410473 128.98196782762358 137.89336801635875 C 0.0 **** -0.24
19002 H 5.980128310725078 129.25067424656632 138.4598764529407 H 0.0 **** 0.06
19003 H 6.698289726383564 128.0448863366994 137.36449270252405 H 0.0 **** 0.06
19004 H 7.7137743272563455 128.86361245216992 138.57628742133784 H 0.0 **** 0.06
19005 H 7.095894010222992 129.77011821004206 137.17421214304522 H 0.0 **** 0.06
19006 C 73.31013538200145 242.54100581989545 163.4884869404324 C 0.0 **** -0.24
19007 H 73.51893998979116 243.2229112683175 162.66460153747212 H 0.0 **** 0.06
19008 H 72.25567575238446 242.60964668095482 163.7584145306283 H 0.0 **** 0.06
19009 H 73.92408571981963 242.81061083934333 164.34772129921745 H 0.0 **** 0.06
19010 H 73.5412577461966 241.52042732634055 163.182518698124 H 0.0 **** 0.06
19011 C 60.92143821671556 69.80538049175215 234.43583954232315 C 0.0 **** -0.24
19012 H 61.809670421818964 70.43645438801613 234.4678529398339 H 0.0 **** 0.06
19013 H 60.73100643484142 69.39593273246513 235.42841087362706 H 0.0 **** 0.06
19014 H 61.08118291717395 68.98879881968946 233.7302953607216 H 0.0 **** 0.06
19015 H 60.065690123141025 70.3986755328678 234.11691518879655 H 0.0 **** 0.06
19016 C 88.47204868036823 116.04465797854758 166.99754843132382 C 0.0 **** -0.24
19017 H 89.52769998487429 116.1521769144698 166.74837866949215 H 0.0 **** 0.06
19018 H 87.88744922478975 115.97761540177572 166.07967352440468 H 0.0 **** 0.06
19019 H 88.14525524053474 116.90897022186795 167.57578018724098 H 0.0 **** 0.06
19020 H 88.32878583768243 115.13850201136441 167.58742867738573 H 0.0 **** 0.06
19021 C 1.270801858529822 108.5774426984479 51.08192437787784 C 0.0 **** -0.24
19022 H 0.6162856973070774 109.38481827766518 50.75306142662308 H 0.0 **** 0.06
19023 H 2.2890252546556127 108.95337133819464 51.180794698263654 H 0.0 **** 0.06
19024 H 1.2498062305840278 107.77211622880199 50.34832365487826 H 0.0 **** 0.06
19025 H 0.9266415193687862 108.20075230526407 52.04502384093334 H 0.0 **** 0.06
19026 C 195.11424634217894 136.8367684767755 118.27630139957566 C 0.0 **** -0.24
19027 H 195.51556341100178 137.71244425865424 117.76565072693492 H 0.0 **** 0.06
19028 H 194.43361160873442 136.30866882018864 117.60908878441504 H 0.0 **** 0.06
19029 H 194.5755821227465 137.15276835821987 119.16969129388221 H 0.0 **** 0.06
19030 H 195.932856322174 136.17553454900008 118.56042806543212 H 0.0 **** 0.06
19031 C 102.98079663544081 98.37000293517553 240.88939914528174 C 0.0 **** -0.24
19032 H 102.5779204619441 98.81015717357042 241.80097009349882 H 0.0 **** 0.06
19033 H 103.22043909788198 97.3212126638947 241.06862258076418 H 0.0 **** 0.06
19034 H 103.88453969337058 98.90472970291788 240.5974739215867 H 0.0 **** 0.06
19035 H 102.24070067407882 98.44337436785631 240.09266068876377 H 0.0 **** 0.06
19036 C 25.93531177989078 125.66590063476642 89.81641433114885 C 0.0 **** -0.24
19037 H 24.846665259453033 125.71116299352468 89.83103058109958 H 0.0 **** 0.06
19038 H 26.31253985534144 125.65560014935136 90.8397546768031 H 0.0 **** 0.06
19039 H 26.328678319392083 126.53750859893245 89.29235526870357 H 0.0 **** 0.06
19040 H 26.25469978770886 124.75886834907789 89.30254828948276 H 0.0 **** 0.06
19041 C 113.31869920335635 186.23248679645738 144.94572513844986 C 0.0 **** -0.24
19042 H 113.3323382267775 186.23467192377746 146.03501470420784 H 0.0 **** 0.06
19043 H 112.29350133118902 186.10792945096568 144.59623498787738 H 0.0 **** 0.06
19044 H 113.93066806519388 185.4089942816938 144.57670106558524 H 0.0 **** 0.06
19045 H 113.71715703997808 187.17643038817022 144.57511562983933 H 0.0 **** 0.06
19046 C 155.4370999992587 69.32334261851761 83.51991202653028 C 0.0 **** -0.24
19047 H 154.53623707948782 69.91024014106884 83.69667135025406 H 0.0 **** 0.06
19048 H 156.2210116302735 69.64625690658266 84.20448961884634 H 0.0 **** 0.06
19049 H 155.76930818210107 69.46943503691833 82.49138866177972 H 0.0 **** 0.06
19050 H 155.2216661670024 68.2681251106265 83.68475387177693 H 0.0 **** 0.06
19051 C 231.93544039410753 240.18728398166465 154.46674980494703 C 0.0 **** -0.24
19052 H 232.28220288519503 241.18583268141458 154.7329862398196 H 0.0 **** 0.06
19053 H 230.95119717069304 240.2575066680921 154.003349736456 H 0.0 **** 0.06
19054 H 231.8718522001389 239.57335424043555 155.36502614386006 H 0.0 **** 0.06
19055 H 232.63576788331216 239.7343576511937 153.7647528541092 H 0.0 **** 0.06
19056 C 111.18727242410424 26.169464476184046 161.3426476706344 C 0.0 **** -0.24
19057 H 110.83332251247188 25.43270159428438 160.6221593111101 H 0.0 **** 0.06
19058 H 110.99013118934576 25.812656871269667 162.35382927705305 H 0.0 **** 0.06
19059 H 110.6665624660894 27.114279385070063 161.18231828960032 H 0.0 **** 0.06
19060 H 112.25932327309087 26.319369729303418 161.21149901558343 H 0.0 **** 0.06
19061 C 132.60592872129712 236.69304973726804 133.77021580711389 C 0.0 **** -0.24
19062 H 133.2178868005097 236.20572223281766 133.01079511502724 H 0.0 **** 0.06
19063 H 131.85768772524887 235.99129570036519 134.13841853737435 H 0.0 **** 0.06
19064 H 132.10845910576103 237.55830043462927 133.33357090717618 H 0.0 **** 0.06
19065 H 133.24041268467252 237.01527515885974 134.595454221321 H 0.0 **** 0.06
19066 C 20.070329997807647 159.57140327427024 242.15891937223435 C 0.0 **** -0.24
19067 H 20.112247685243716 160.22006388713996 243.0331681202685 H 0.0 **** 0.06
19068 H 19.295483888799396 159.92659967507865 241.47931757982184 H 0.0 **** 0.06
19069 H 19.84014837571496 158.55295978214818 242.4727248038726 H 0.0 **** 0.06
19070 H 21.033792477175297 159.58510460412796 241.65016315806105 H 0.0 **** 0.06
19071 C 68.00046937397411 98.81736770762294 52.983504086357826 C 0.0 **** -0.24
19072 H 68.34074606210777 97.84217834022922 53.32935958464577 H 0.0 **** 0.06
19073 H 66.98027086355575 98.98962278624288 53.32705286044752 H 0.0 **** 0.06
19074 H 68.02593102741943 98.84611620116056 51.89336197877313 H 0.0 **** 0.06
19075 H 68.65491838026765 99.59314533341387 53.38238019942996 H 0.0 **** 0.06
19076 C 75.39270637914271 37.17315605049755 205.80276902428312 C 0.0 **** -0.24
19077 H 76.47623785305504 37.202994808862655 205.916838130689 H 0.0 **** 0.06
19078 H 75.13018023026703 36.476455007349614 205.00713013672578 H 0.0 **** 0.06
19079 H 75.02596520644525 38.16856383478482 205.55063248958214 H 0.0 **** 0.06
19080 H 74.93843472465554 36.845944865820556 206.73852950811417 H 0.0 **** 0.06
19081 C 121.26316873051934 146.94322987466364 174.20382709978603 C 0.0 **** -0.24
19082 H 122.2452662017306 147.13254487737632 174.63657292724994 H 0.0 **** 0.06
19083 H 121.24238255170991 147.3069651032103 173.17611449629152 H 0.0 **** 0.06
19084 H 120.50206051804307 147.4596085271655 174.78868857411408 H 0.0 **** 0.06
19085 H 121.06239321719511 145.8708561080307 174.2139409169608 H 0.0 **** 0.06
19086 C 135.83170786117515 234.43236026677366 210.3139756889314 C 0.0 **** -0.24
19087 H 136.68108305805225 235.00266912437124 209.936759359091 H 0.0 **** 0.06
19088 H 135.83296830849184 234.45829109696308 211.40357863059532 H 0.0 **** 0.06
19089 H 135.90922284298344 233.39947082375454 209.975045915021 H 0.0 **** 0.06
19090 H 134.90597004797678 234.86916510266568 209.94012598617104 H 0.0 **** 0.06
19091 C 68.04192469208317 243.75031202085586 191.75307988155106 C 0.0 **** -0.24
19092 H 68.52941170530218 242.8279073851587 191.43746830244515 H 0.0 **** 0.06
19093 H 67.52328855996197 244.19519337853777 190.90267013998812 H 0.0 **** 0.06
19094 H 68.78981416635409 244.44726562409411 192.12870943250022 H 0.0 **** 0.06
19095 H 67.32263875002349 243.5292568851429 192.5412625529035 H 0.0 **** 0.06
19096 C 44.01819831299858 149.55429056583858 201.79200209501167 C 0.0 **** -0.24
19097 H 44.84503563973644 149.38474104975248 202.48128546204956 H 0.0 **** 0.06
19098 H 43.31172238509728 150.25574039518972 202.23727221745523 H 0.0 **** 0.06
19099 H 43.51414401134511 148.60992522971205 201.58986370465925 H 0.0 **** 0.06
19100 H 44.40289147761334 149.96872641880302 200.85992663352636 H 0.0 **** 0.06
19101 C 22.936367040755243 151.60272633670897 52.217103887037666 C 0.0 **** -0.24
19102 H 23.474030877132947 152.52760738970798 52.01156510097107 H 0.0 **** 0.06
19103 H 22.361246993950232 151.71375444857316 53.13663543315997 H 0.0 **** 0.06
19104 H 23.64876128863031 150.7853649679611 52.3298487291174 H 0.0 **** 0.06
19105 H 22.26014375983098 151.3847675355921 51.3903308790764 H 0.0 **** 0.06
19106 C 185.7712801985476 192.8584016455391 211.23084137490724 C 0.0 **** -0.24
19107 H 185.1937876407143 191.97938444818757 211.52082706847642 H 0.0 **** 0.06
19108 H 185.11082444938174 193.58643823227462 210.75851996660487 H 0.0 **** 0.06
19109 H 186.551009976612 192.56353969649305 210.52869148233322 H 0.0 **** 0.06
19110 H 186.2270053861317 193.30072062755843 212.11593347584005 H 0.0 **** 0.06
19111 C 68.77328476791715 76.311674681607 151.67549768307214 C 0.0 **** -0.24
19112 H 68.15864559316256 75.70480509216685 152.33988352674035 H 0.0 **** 0.06
19113 H 68.19316627913929 76.58451017930832 150.79306643112872 H 0.0 **** 0.06
19114 H 69.65023878795327 75.74098920201942 151.37120129527312 H 0.0 **** 0.06
19115 H 69.08967315856287 77.21491149380088 152.19694587217938 H 0.0 **** 0.06
19116 C 220.71013035705178 98.97445620525906 12.176469125528286 C 0.0 **** -0.24
19117 H 220.16694421180546 99.8444432097549 12.546593429836662 H 0.0 **** 0.06
19118 H 220.1813815666187 98.06621175935655 12.467730732984336 H 0.0 **** 0.06
19119 H 221.71257571872206 98.96472510472304 12.60441324786838 H 0.0 **** 0.06
19120 H 220.77872743713942 99.023186471864 11.089905566936665 H 0.0 **** 0.06
19121 C 85.48764580337433 146.5801609826926 40.08216322620973 C 0.0 **** -0.24
19122 H 86.47394604394304 146.91523441518478 40.40358382602328 H 0.0 **** 0.06
19123 H 84.72677272174718 147.2487494867457 40.485784511849076 H 0.0 **** 0.06
19124 H 85.31131563518434 145.56742035111844 40.44567479622562 H 0.0 **** 0.06
19125 H 85.43854881262266 146.58923967772148 38.99360977074103 H 0.0 **** 0.06
19126 C 216.6477777092759 108.9186216185499 69.71774389292679 C 0.0 **** -0.24
19127 H 217.094048890867 107.9519572226549 69.48591089298273 H 0.0 **** 0.06
19128 H 215.71366855871776 108.76674084157608 70.25909304012279 H 0.0 **** 0.06
19129 H 216.44821911322234 109.45885086840411 68.79174642882444 H 0.0 **** 0.06
19130 H 217.33517427429655 109.49693754156445 70.33422520977714 H 0.0 **** 0.06
19131 C 175.02393907836745 164.04819194674994 235.95493766974357 C 0.0 **** -0.24
19132 H 174.7516881357813 164.09441690540174 237.01022116901066 H 0.0 **** 0.06
19133 H 174.42970818323255 164.77102068575343 235.3952155655105 H 0.0 **** 0.06
19134 H 174.830642606224 163.0463681690335 235.57412650768816 H 0.0 **** 0.06
19135 H 176.08224165349708 164.28269275442887 235.84315845094045 H 0.0 **** 0.06
19136 C 56.82908071220206 100.00695927695256 127.89027379462951 C 0.0 **** -0.24
19137 H 56.01615253516238 100.58470482362469 128.32821262034324 H 0.0 **** 0.06
19138 H 56.44962321860882 99.03901936582264 127.56003459938543 H 0.0 **** 0.06
19139 H 57.610204062993404 99.85576442329472 128.6361370582632 H 0.0 **** 0.06
19140 H 57.240628071342115 100.5463407778399 127.0376531705601 H 0.0 **** 0.06
19141 C 129.5646745245807 24.049094474024386 188.30908439647325 C 0.0 **** -0.24
19142 H 130.2853907806599 23.31123791632764 188.66196305878628 H 0.0 **** 0.06
19143 H 128.578565798588 23.81312891237745 188.70978304710434 H 0.0 **** 0.06
19144 H 129.5289365171276 24.02927853652099 187.21989355389204 H 0.0 **** 0.06
19145 H 129.8664530028721 25.04168069687455 188.64538622802058 H 0.0 **** 0.06
19146 C 23.697777776341923 1.0117093619389834 101.53426389991301 C 0.0 **** -0.24
19147 H 23.22559357839461 0.22836244639526626 100.94115828982137 H 0.0 **** 0.06
19148 H 22.96554726097139 1.438613303224571 102.22052556910921 H 0.0 **** 0.06
19149 H 24.072734162691177 1.7922606399289407 100.8715082967629 H 0.0 **** 0.06
19150 H 24.525783585996038 0.5881629885041946 102.10197281278954 H 0.0 **** 0.06
19151 C 169.343489982654 214.18386391424292 224.51473792085122 C 0.0 **** -0.24
19152 H 169.82386267479185 213.69361735297815 223.6676204787211 H 0.0 **** 0.06
19153 H 170.07528592270197 214.7933522685604 225.04488055887194 H 0.0 **** 0.06
19154 H 168.9408412341428 213.42899032066816 225.1905362765478 H 0.0 **** 0.06
19155 H 168.5329170915581 214.81879594669743 224.155280713603 H 0.0 **** 0.06
19156 C 118.14129537621511 38.776659529856175 141.88357895061196 C 0.0 **** -0.24
19157 H 119.07172015318886 38.22194886231844 142.00996087603994 H 0.0 **** 0.06
19158 H 117.41695152772252 38.444160753727516 142.62611387054844 H 0.0 **** 0.06
19159 H 117.7460853288332 38.59749825011616 140.88329907446837 H 0.0 **** 0.06
19160 H 118.33376512896271 39.842102152500104 142.01271062305733 H 0.0 **** 0.06
19161 C 30.5866612219111 96.92465648653874 76.10292082181658 C 0.0 **** -0.24
19162 H 29.573925845965988 97.1344294461737 75.75790931722574 H 0.0 **** 0.06
19163 H 31.289104131760922 97.08794434972421 75.28594065328855 H 0.0 **** 0.06
19164 H 30.649791157801104 95.88930966069117 76.43586093287792 H 0.0 **** 0.06
19165 H 30.831773109883983 97.58912401791403 76.93216182552322 H 0.0 **** 0.06
19166 C 82.53429201440926 50.29875496951921 5.936083323914701 C 0.0 **** -0.24
19167 H 83.22273221821968 50.77408824455661 6.635020327810011 H 0.0 **** 0.06
19168 H 82.82081636171799 49.25645917486442 5.796169624045206 H 0.0 **** 0.06
19169 H 82.57444765616793 50.818987760194815 4.978778804609945 H 0.0 **** 0.06
19170 H 81.52148518656176 50.34819207107415 6.334928987912662 H 0.0 **** 0.06
19171 C 134.93467919086387 235.81990393276544 155.7877588094993 C 0.0 **** -0.24
19172 H 135.31559895362145 234.89677417067958 156.22535468714622 H 0.0 **** 0.06
19173 H 133.89185985827544 235.95372338987346 156.07520751900776 H 0.0 **** 0.06
19174 H 135.0092258566363 235.76364279505404 154.7020230945918 H 0.0 **** 0.06
19175 H 135.52357347405015 236.66229274028515 156.14915357803315 H 0.0 **** 0.06
19176 C 162.54592955761947 103.98704433271772 166.1649525366721 C 0.0 **** -0.24
19177 H 163.4606992519293 103.67006671419225 166.66575405879985 H 0.0 **** 0.06
19178 H 162.58028379548327 105.06343953207869 165.99281670894763 H 0.0 **** 0.06
19179 H 161.6871873903426 103.74688055258446 166.79233664867385 H 0.0 **** 0.06
19180 H 162.4556159413282 103.46776369513341 165.21135113668254 H 0.0 **** 0.06
19181 C 205.76329505016363 27.516257275114796 214.38455561690023 C 0.0 **** -0.24
19182 H 206.1068708775473 27.114103792953586 213.43143873127707 H 0.0 **** 0.06
19183 H 206.60618028675378 27.59283683466623 215.0712270197343 H 0.0 **** 0.06
19184 H 205.00875938675517 26.85239034787388 214.80680815618365 H 0.0 **** 0.06
19185 H 205.3306372590386 28.50388232123541 214.22766850968048 H 0.0 **** 0.06
19186 C 95.3105614356353 22.657971409572184 66.45891012904056 C 0.0 **** -0.24
19187 H 95.21498208705856 23.60934384161888 66.98115206703969 H 0.0 **** 0.06
19188 H 94.33932621893646 22.36402064562796 66.05976519267912 H 0.0 **** 0.06
19189 H 95.66366760407342 21.896108462209128 67.15439662013247 H 0.0 **** 0.06
19190 H 96.02379533178589 22.76265380825106 65.64163687674665 H 0.0 **** 0.06
19191 C 67.99767573265243 33.842133512111815 126.70976630810449 C 0.0 **** -0.24
19192 H 68.32123708046564 34.54612151389628 125.94414466481211 H 0.0 **** 0.06
19193 H 67.27898205075428 33.14309522140982 126.27970765107636 H 0.0 **** 0.06
19194 H 67.52945021068408 34.386127478940665 127.52944977346922 H 0.0 **** 0.06
19195 H 68.85973599767266 33.29151239775976 127.08505426141593 H 0.0 **** 0.06
19196 C 200.18341457303336 246.24254605736544 190.97602614062328 C 0.0 **** -0.24
19197 H 200.92016084283455 246.54336912455545 190.23212898959406 H 0.0 **** 0.06
19198 H 200.25851043618377 245.1688058768038 191.1495375537968 H 0.0 **** 0.06
19199 H 199.18318996692153 246.4829223545134 190.61578796778747 H 0.0 **** 0.06
19200 H 200.3708993587646 246.77567781085168 191.90885118939696 H 0.0 **** 0.06
19201 C 39.32774446353173 91.0246867865576 18.418578935140417 C 0.0 **** -0.24
19202 H 39.60688656718898 91.8042154139581 17.710123313268255 H 0.0 **** 0.06
19203 H 39.90981351551508 91.13965566584667 19.333894378766246 H 0.0 **** 0.06
19204 H 39.5277815956795 90.04687075402887 17.98036948525521 H 0.0 **** 0.06
19205 H 38.266231033600974 91.10858423270062 18.650699640871025 H 0.0 **** 0.06
19206 C 178.59397473606433 181.41235270581868 126.31387979881515 C 0.0 **** -0.24
19207 H 179.31836626036014 182.21970969012182 126.42107675800867 H 0.0 **** 0.06
19208 H 178.30555901435662 181.04960866863806 127.30026952929842 H 0.0 **** 0.06
19209 H 179.03930787279955 180.59829235242188 125.74287393431857 H 0.0 **** 0.06
19210 H 177.71247242098642 181.78270782884465 125.78983654916553 H 0.0 **** 0.06
19211 C 107.80473981351219 190.74158486055939 1.3649654297741165 C 0.0 **** -0.24
19212 H 107.79505878370713 190.1360883423173 2.271392379573598 H 0.0 **** 0.06
19213 H 107.92960420119624 191.79188384876124 1.6311505222343783 H 0.0 **** 0.06
19214 H 106.86340476620416 190.61049611174604 0.8313320000782767 H 0.0 **** 0.06
19215 H 108.6314676479688 190.42751439254988 0.7267222071207584 H 0.0 **** 0.06
19216 C 102.36976258683524 29.733908876825893 169.65519057265303 C 0.0 **** -0.24
19217 H 103.0405023898742 30.216107255032057 168.9433265266433 H 0.0 **** 0.06
19218 H 102.41701933804106 30.257884187943404 170.61024776978545 H 0.0 **** 0.06
19219 H 102.67330219327337 28.69673779511919 169.79369838234615 H 0.0 **** 0.06
19220 H 101.35014713978723 29.76586869446669 169.27164986330646 H 0.0 **** 0.06
19221 C 41.91755609374768 39.214137870101155 71.29617912078834 C 0.0 **** -0.24
19222 H 41.272643557929555 38.967179505338976 72.13961314785587 H 0.0 **** 0.06
19223 H 42.25627683405203 38.295866607028444 70.81715959107464 H 0.0 **** 0.06
19224 H 42.78021065081809 39.77873130349664 71.65241914683622 H 0.0 **** 0.06
19225 H 41.36180929346415 39.81611517403607 70.57744524394474 H 0.0 **** 0.06
19226 C 246.47932738166503 170.60950603887517 119.83606026247566 C 0.0 **** -0.24
19227 H 246.9936749270468 169.84156682759053 120.41323314183336 H 0.0 **** 0.06
19228 H 245.4100667677801 170.56521605013407 120.04527956081145 H 0.0 **** 0.06
19229 H 246.64886286959273 170.4412098779916 118.77273543630656 H 0.0 **** 0.06
19230 H 246.86323438974466 171.59079985594963 120.11410957142206 H 0.0 **** 0.06
19231 C 102.13802465425158 3.4905182915816084 175.35713037135008 C 0.0 **** -0.24
19232 H 101.90524994878618 2.982901632846051 174.420746454955 H 0.0 **** 0.06
19233 H 103.21907751194223 3.511426997852624 175.4990075190007 H 0.0 **** 0.06
19234 H 101.67391737491593 2.9546195914175684 176.18590090566087 H 0.0 **** 0.06
19235 H 101.75560397844168 4.509818936196069 175.3229517968398 H 0.0 **** 0.06
19236 C 34.79271874214861 75.61941805413909 122.54696181794526 C 0.0 **** -0.24
19237 H 35.506903004457484 76.11694521159885 121.89094266070745 H 0.0 **** 0.06
19238 H 33.81114050591948 76.0792476190233 122.43060671438357 H 0.0 **** 0.06
19239 H 35.11997189063379 75.7201667844474 123.58226257079028 H 0.0 **** 0.06
19240 H 34.733071093647865 74.56310289138628 122.28621482049698 H 0.0 **** 0.06
19241 C 69.91276352855334 197.58070398809429 60.54391513824859 C 0.0 **** -0.24
19242 H 69.5577140233224 196.6264927142817 60.15420721400773 H 0.0 **** 0.06
19243 H 70.80949099876955 197.41762478596382 61.143259450665425 H 0.0 **** 0.06
19244 H 69.13800121140304 198.0307029930575 61.16338087647924 H 0.0 **** 0.06
19245 H 70.14725964560452 198.24657942206068 59.71381210836449 H 0.0 **** 0.06
19246 C 137.74015653373246 148.1761524605881 31.754630439439353 C 0.0 **** -0.24
19247 H 138.49201430361728 147.73518928950577 31.10118500843791 H 0.0 **** 0.06
19248 H 136.80564651792375 147.6230694715526 31.657533519530233 H 0.0 **** 0.06
19249 H 137.57831640853493 149.21649813721584 31.47102292146687 H 0.0 **** 0.06
19250 H 138.08454349191672 148.13073897298378 32.78768310261418 H 0.0 **** 0.06
19251 C 75.26757861531021 135.78197090536366 11.941434150081847 C 0.0 **** -0.24
19252 H 74.87620498283499 134.984297874887 11.30949982432881 H 0.0 **** 0.06
19253 H 74.49410041285384 136.53525273623146 12.095779660252589 H 0.0 **** 0.06
19254 H 76.12863324464408 136.23971827678926 11.455643220777489 H 0.0 **** 0.06
19255 H 75.56983155717117 135.36821573470348 12.903246700621338 H 0.0 **** 0.06
19256 C 108.4994933464925 34.82125564100795 174.5307203497325 C 0.0 **** -0.24
19257 H 107.47715833879298 34.46734336558863 174.39672854005283 H 0.0 **** 0.06
19258 H 108.48359372025737 35.82865235966207 174.94548849309498 H 0.0 **** 0.06
19259 H 109.00870530790314 34.83232697021204 173.56744771677927 H 0.0 **** 0.06
19260 H 109.02678522384036 34.15499078620486 175.2129277823273 H 0.0 **** 0.06
19261 C 136.8367561666653 208.70006802407246 22.462614437457177 C 0.0 **** -0.24
19262 H 135.8238729669913 208.95617236875876 22.154233596493597 H 0.0 **** 0.06
19263 H 137.28266537840756 208.02803846910655 21.728542347639348 H 0.0 **** 0.06
19264 H 136.80751981651085 208.2082272260769 23.435162862614675 H 0.0 **** 0.06
19265 H 137.4348735472438 209.6087731816436 22.533212654995722 H 0.0 **** 0.06
19266 C 24.159930103788795 36.73387294643935 72.21829375942514 C 0.0 **** -0.24
19267 H 25.142218739591627 36.364447395707444 72.5131011019331 H 0.0 **** 0.06
19268 H 23.405045048309532 35.981373422830046 72.44757436179842 H 0.0 **** 0.06
19269 H 24.156053607569163 36.939111192912804 71.1476122905224 H 0.0 **** 0.06
19270 H 23.937859874866476 37.65045326977125 72.76395655310108 H 0.0 **** 0.06
19271 C 6.930798750418774 57.66116735105797 86.80151128154395 C 0.0 **** -0.24
19272 H 7.1918912092235985 57.62726098759026 85.7443837380529 H 0.0 **** 0.06
19273 H 5.847643099100424 57.600265698960754 86.91018694167025 H 0.0 **** 0.06
19274 H 7.2867523734722965 58.59635562795256 87.23394332909788 H 0.0 **** 0.06
19275 H 7.396133230348568 56.82233296545772 87.31762875782496 H 0.0 **** 0.06
19276 C 105.13287215153164 52.513731792142394 54.77970862611906 C 0.0 **** -0.24
19277 H 104.8528004496034 52.7042916791725 55.81590134161985 H 0.0 **** 0.06
19278 H 104.7390277483486 53.308071900337694 54.145139517098755 H 0.0 **** 0.06
19279 H 104.72014773684336 51.55612781848714 54.462677470223525 H 0.0 **** 0.06
19280 H 106.2192072741698 52.48635763517167 54.69606519459097 H 0.0 **** 0.06
19281 C 196.65205553520985 47.23690628936177 12.292133879234228 C 0.0 **** -0.24
19282 H 196.52677366523923 47.74858285006681 11.337213918305665 H 0.0 **** 0.06
19283 H 197.43004195540652 47.73650473662215 12.87120132847717 H 0.0 **** 0.06
19284 H 196.93977980076238 46.200998847964144 12.114243229137756 H 0.0 **** 0.06
19285 H 195.71326623040042 47.26413915530205 12.84428020933943 H 0.0 **** 0.06
19286 C 9.827148361351618 173.7202266336216 127.93751945456583 C 0.0 **** -0.24
19287 H 9.398103293447633 174.32967243073736 128.73188316452794 H 0.0 **** 0.06
19288 H 9.870458801890635 172.67949116660193 128.26053412075814 H 0.0 **** 0.06
19289 H 10.834414501811835 174.0735724609142 127.71283470790226 H 0.0 **** 0.06
19290 H 9.207249434764861 173.79805751118914 127.0442584368453 H 0.0 **** 0.06
19291 C 247.80176807272943 133.33935548955137 132.38636708210547 C 0.0 **** -0.24
19292 H 248.12107386700663 134.12297197217126 131.69908650656015 H 0.0 **** 0.06
19293 H 248.6330849393143 132.65824191977117 132.5721926868812 H 0.0 **** 0.06
19294 H 246.97058839719307 132.78826131339287 131.9481717943597 H 0.0 **** 0.06
19295 H 247.48405200953016 133.789260669706 133.32655716578276 H 0.0 **** 0.06
19296 C 188.56384986356153 30.644052070740813 113.88897230606668 C 0.0 **** -0.24
19297 H 187.84279180878207 29.876355367018547 113.61089029068941 H 0.0 **** 0.06
19298 H 188.5813084898723 31.419802943286726 113.1237152607757 H 0.0 **** 0.06
19299 H 189.55467323968094 30.197461813203702 113.97595939979004 H 0.0 **** 0.06
19300 H 188.27829862739983 31.08266384927117 114.84488117422049 H 0.0 **** 0.06
19301 C 35.414286149506 75.26957336611824 7.990272564904799 C 0.0 **** -0.24
19302 H 34.889184544810476 76.00980133283068 8.59322399122226 H 0.0 **** 0.06
19303 H 35.66954204361393 75.7041812135189 7.02334649474605 H 0.0 **** 0.06
19304 H 34.77217573657711 74.40213713708482 7.840438768821414 H 0.0 **** 0.06
19305 H 36.32646256104523 74.963833037853 8.503635618230092 H 0.0 **** 0.06
19306 C 61.992982480731 67.77903978691305 94.94614339207735 C 0.0 **** -0.24
19307 H 62.59831118495387 66.87856185804318 94.84986144448393 H 0.0 **** 0.06
19308 H 62.556403078551995 68.54032369313165 95.48439760674913 H 0.0 **** 0.06
19309 H 61.07951080288362 67.54613104631954 95.49435009774547 H 0.0 **** 0.06
19310 H 61.73556229084292 68.1509418875998 93.953874147953 H 0.0 **** 0.06
19311 C 68.42689633015107 168.4716563725888 167.15743017482257 C 0.0 **** -0.24
19312 H 67.66925515601466 168.06612981317215 166.48722153154566 H 0.0 **** 0.06
19313 H 67.95646900200069 168.7852424672276 168.08936604151177 H 0.0 **** 0.06
19314 H 68.90637173781408 169.32958128295704 166.68537746894575 H 0.0 **** 0.06
19315 H 69.1746338068283 167.7068643377239 167.3649545553671 H 0.0 **** 0.06
19316 C 96.2668486561474 80.26980656873602 244.388520166142 C 0.0 **** -0.24
19317 H 95.63394717343994 80.84887962570434 245.05970170649258 H 0.0 **** 0.06
19318 H 95.8976439482025 79.24527313704615 244.33500654862158 H 0.0 **** 0.06
19319 H 97.29013298887256 80.26888136935625 244.76372129269353 H 0.0 **** 0.06
19320 H 96.2451790405363 80.71573840167002 243.3944050861871 H 0.0 **** 0.06
19321 C 200.88592368345405 130.48924280190656 152.27778135062704 C 0.0 **** -0.24
19322 H 200.72599951792995 129.4475335610895 151.99747134426767 H 0.0 **** 0.06
19323 H 200.4120697541191 131.13874547009434 151.54160928579304 H 0.0 **** 0.06
19324 H 201.9554809927434 130.69602478015173 152.31127675408797 H 0.0 **** 0.06
19325 H 200.44937809510333 130.67304502853526 153.2591004895574 H 0.0 **** 0.06
19326 C 241.496408381374 47.26810251596302 210.79939111806206 C 0.0 **** -0.24
19327 H 241.54075852581985 47.673024022505416 211.81057666503955 H 0.0 **** 0.06
19328 H 241.56090071356317 48.083855286191096 210.07871731211603 H 0.0 **** 0.06
19329 H 240.55575728862425 46.73547353609226 210.66263786593953 H 0.0 **** 0.06
19330 H 242.3282618074578 46.582018415748024 210.64602216551845 H 0.0 **** 0.06
19331 C 242.32960941590426 164.86526268089537 173.70686520957904 C 0.0 **** -0.24
19332 H 243.4113708621788 164.98719431547323 173.65172521480642 H 0.0 **** 0.06
19333 H 242.03351498093963 163.98363355629596 173.13801923268076 H 0.0 **** 0.06
19334 H 241.84386986247014 165.74814312613415 173.29048103425978 H 0.0 **** 0.06
19335 H 242.03155161967504 164.7438411745552 174.74841930803782 H 0.0 **** 0.06
19336 C 82.52696442569825 74.3208141969223 111.59550776367041 C 0.0 **** -0.24
19337 H 83.36530010031885 74.85073365835873 111.14240817410058 H 0.0 **** 0.06
19338 H 82.76048762460164 73.25787604567662 111.66009859536172 H 0.0 **** 0.06
19339 H 81.63566585618986 74.46071870937806 110.98483097120751 H 0.0 **** 0.06
19340 H 82.34732204930702 74.71575668858193 112.59604043468178 H 0.0 **** 0.06
19341 C 205.7092842003528 43.63936906010393 163.79312519470687 C 0.0 **** -0.24
19342 H 205.6761362077209 44.46050552269632 164.50997503985684 H 0.0 **** 0.06
19343 H 205.1393881800024 43.910216604110744 162.9042716050182 H 0.0 **** 0.06
19344 H 205.27891286725054 42.7456602500646 164.24468432151582 H 0.0 **** 0.06
19345 H 206.74525978604808 43.442566791539946 163.51507837578163 H 0.0 **** 0.06
19346 C 129.6848940497088 157.91029664468093 71.8947793747488 C 0.0 **** -0.24
19347 H 128.79662933082662 158.53972201957998 71.96261794882068 H 0.0 **** 0.06
19348 H 129.42168241193812 156.96012248864295 71.42799859705326 H 0.0 **** 0.06
19349 H 130.0762264425293 157.72688396292418 72.89585445866393 H 0.0 **** 0.06
19350 H 130.4422617148285 158.41386158266303 71.29403804785576 H 0.0 **** 0.06
19351 C 128.13396154414698 244.2793420793303 198.0510931467751 C 0.0 **** -0.24
19352 H 127.18192423307477 244.48929958409641 197.56214694581956 H 0.0 **** 0.06
19353 H 128.43467808738393 245.14247214049178 198.64571709176101 H 0.0 **** 0.06
19354 H 128.89195012114322 244.0750531655763 197.29573898240892 H 0.0 **** 0.06
19355 H 128.0241759832124 243.41064245622837 198.70025003415134 H 0.0 **** 0.06
19356 C 172.37882164425923 25.909789415136373 205.32379564626783 C 0.0 **** -0.24
19357 H 172.96504618893653 24.998469573320875 205.20507959981884 H 0.0 **** 0.06
19358 H 171.31777885113135 25.65960569473927 205.34105461744068 H 0.0 **** 0.06
19359 H 172.5808826074774 26.58173348506213 204.4899065054033 H 0.0 **** 0.06
19360 H 172.65224977980395 26.398803441708566 206.25863943156733 H 0.0 **** 0.06
19361 C 100.01445319019527 57.87397529264291 81.38313698247526 C 0.0 **** -0.24
19362 H 99.71037510990249 58.480125037895135 80.53003934906707 H 0.0 **** 0.06
19363 H 99.35469851509964 57.00943890129648 81.46628252044505 H 0.0 **** 0.06
19364 H 99.94950294078686 58.469567748943405 82.29341147665741 H 0.0 **** 0.06
19365 H 101.04010074918463 57.53595396840933 81.24094267219908 H 0.0 **** 0.06
19366 C 162.46200645193915 65.11103975880002 171.18321131301343 C 0.0 **** -0.24
19367 H 162.33125695353328 64.96675183362666 170.11009941492603 H 0.0 **** 0.06
19368 H 161.6793722705874 65.7706368990001 171.55904628613413 H 0.0 **** 0.06
19369 H 163.43754261207866 65.5581322273847 171.37251024849357 H 0.0 **** 0.06
19370 H 162.39896082193025 64.14713639091019 171.68788062234051 H 0.0 **** 0.06
19371 C 3.0963946547681047 142.91691049305626 98.72822271519482 C 0.0 **** -0.24
19372 H 3.426665424484554 142.1950661826916 99.47467202475522 H 0.0 **** 0.06
19373 H 3.960677992557052 143.29819074048854 98.18434197954096 H 0.0 **** 0.06
19374 H 2.5842900584167126 143.74194666616586 99.22250275342671 H 0.0 **** 0.06
19375 H 2.412711958558134 142.43037875028077 98.03186116219325 H 0.0 **** 0.06
19376 C 153.30274992065884 161.33857480458326 100.63039823075292 C 0.0 **** -0.24
19377 H 154.22094491984842 160.76895389725644 100.4865561791934 H 0.0 **** 0.06
19378 H 152.97525551670668 161.2423432998989 101.66493990181038 H 0.0 **** 0.06
19379 H 152.52961581608704 160.95318305934 99.96624732857407 H 0.0 **** 0.06
19380 H 153.48802385933556 162.38843890789366 100.40368365313657 H 0.0 **** 0.06
19381 C 70.56213939846913 58.77055908929063 70.9143227494734 C 0.0 **** -0.24
19382 H 70.28314367027869 59.515741992973744 70.16852022535338 H 0.0 **** 0.06
19383 H 71.01374483121401 59.268348307502976 71.77357417682612 H 0.0 **** 0.06
19384 H 71.27873039055947 58.0743807632243 70.47952779921854 H 0.0 **** 0.06
19385 H 69.67357972265958 58.22632477185937 71.23301581723723 H 0.0 **** 0.06
19386 C 189.6809262721608 208.4782830904083 173.1925877356291 C 0.0 **** -0.24
19387 H 190.21350552934894 207.79732766149104 172.52864526202225 H 0.0 **** 0.06
19388 H 188.79949282928013 208.8670361038039 172.68213719505093 H 0.0 **** 0.06
19389 H 190.33590456627886 209.30415333260046 173.46856479585372 H 0.0 **** 0.06
19390 H 189.3741338947019 207.94248140587712 174.09101445144873 H 0.0 **** 0.06
19391 C 122.04699035733267 74.97608779446145 6.158066244216968 C 0.0 **** -0.24
19392 H 121.89122936048744 74.1939124599431 6.901283460238105 H 0.0 **** 0.06
19393 H 122.00012506277378 74.54216630841992 5.158912420278938 H 0.0 **** 0.06
19394 H 123.02523118245958 75.43165128544226 6.31221021673808 H 0.0 **** 0.06
19395 H 121.27195618050735 75.73476494042708 6.262725565000878 H 0.0 **** 0.06
19396 C 182.44377970993258 176.65735836005052 224.26909391869236 C 0.0 **** -0.24
19397 H 181.8810496761419 175.80679634632574 223.88314217501755 H 0.0 **** 0.06
19398 H 183.41712604487003 176.69940545826114 223.78074003210446 H 0.0 **** 0.06
19399 H 182.58157303706125 176.54311881868665 225.34455795838642 H 0.0 **** 0.06
19400 H 181.89543163257352 177.5766937067424 224.06848869446486 H 0.0 **** 0.06
19401 C 173.89443619083028 142.35256597347077 116.58353856089613 C 0.0 **** -0.24
19402 H 174.77674984229026 141.7182093506742 116.65767254673659 H 0.0 **** 0.06
19403 H 173.0619134395778 141.772316767728 116.18653315783362 H 0.0 **** 0.06
19404 H 174.10374144554896 143.19077063395167 115.917486877297 H 0.0 **** 0.06
19405 H 173.63470023462014 142.73172215620968 117.57243663517545 H 0.0 **** 0.06
19406 C 230.17546688401393 161.31786267083683 150.98024903679254 C 0.0 **** -0.24
19407 H 230.70653774850118 160.49312969420316 151.45436802244524 H 0.0 **** 0.06
19408 H 229.24498675736942 161.5060647402031 151.5158751042296 H 0.0 **** 0.06
19409 H 229.95325295330395 161.06017609104813 149.94551904856695 H 0.0 **** 0.06
19410 H 230.79755742060968 162.21291951591172 151.0062718001564 H 0.0 **** 0.06
19411 C 46.20931186986887 151.34316435811382 237.55287227219804 C 0.0 **** -0.24
19412 H 46.657326757273324 150.67622328087236 238.28927489741113 H 0.0 **** 0.06
19413 H 46.968239931221234 151.65331117852654 236.83455290245215 H 0.0 **** 0.06
19414 H 45.80645993978543 152.2225747703257 238.05710558715484 H 0.0 **** 0.06
19415 H 45.40583168812729 150.82300259583073 237.03312532418622 H 0.0 **** 0.06
19416 C 211.93912416949462 218.3740815161165 54.17535806903939 C 0.0 **** -0.24
19417 H 211.28317737150294 218.73364839742453 53.38226095672907 H 0.0 **** 0.06
19418 H 211.36125632035714 217.7744210324585 54.87994563668897 H 0.0 **** 0.06
19419 H 212.37801829114917 219.22471792274317 54.69613077958823 H 0.0 **** 0.06
19420 H 212.73110744219295 217.76386606132218 53.74257965943923 H 0.0 **** 0.06
19421 C 109.11153354582788 152.09950516901162 243.3626480074791 C 0.0 **** -0.24
19422 H 108.06216673089872 152.31926723881585 243.16389313861583 H 0.0 **** 0.06
19423 H 109.18158742279692 151.24748184551314 244.03940740853133 H 0.0 **** 0.06
19424 H 109.58404140756008 152.96843555387633 243.82174482228936 H 0.0 **** 0.06
19425 H 109.6171100349246 151.86253201082638 242.42617766025046 H 0.0 **** 0.06
19426 C 179.1199094276848 78.34597714063904 42.72047158096481 C 0.0 **** -0.24
19427 H 178.4822928350353 79.03053005079195 43.280772368747364 H 0.0 **** 0.06
19428 H 180.0224521577843 78.13743534606226 43.295536373694205 H 0.0 **** 0.06
19429 H 179.39140038692165 78.79971850763329 41.76765890601861 H 0.0 **** 0.06
19430 H 178.58139534079953 77.41586465594526 42.53860648297845 H 0.0 **** 0.06
19431 C 225.08497890683265 199.25909553216331 190.15866638340452 C 0.0 **** -0.24
19432 H 226.03252263267586 199.72433881728816 189.88529639371322 H 0.0 **** 0.06
19433 H 224.2811304664936 199.70025092238953 189.5691791677039 H 0.0 **** 0.06
19434 H 224.8916962029706 199.42412463012968 191.21828789853745 H 0.0 **** 0.06
19435 H 225.1351364060315 198.18850292156912 189.9609133722244 H 0.0 **** 0.06
19436 C 82.50291011076496 141.3935410310972 113.09201662123286 C 0.0 **** -0.24
19437 H 81.81153422728357 141.9499616496432 112.45937450320736 H 0.0 **** 0.06
19438 H 82.24073622413957 140.33538782980946 113.07395475172254 H 0.0 **** 0.06
19439 H 82.43908265034202 141.76611639022335 114.11433272953025 H 0.0 **** 0.06
19440 H 83.51894145878484 141.5225710051783 112.72081974413553 H 0.0 **** 0.06
19441 C 168.81021016884276 44.0153338065746 86.64300156261791 C 0.0 **** -0.24
19442 H 167.94003729608198 44.03936623841625 87.29917774715307 H 0.0 **** 0.06
19443 H 168.6884951505494 43.219733062183565 85.90757142708105 H 0.0 **** 0.06
19444 H 169.70675244400735 43.82963151707551 87.23503887916397 H 0.0 **** 0.06
19445 H 168.90555578473231 44.97260440862303 86.13021819707365 H 0.0 **** 0.06
19446 C 184.345006908737 57.41324716177522 118.58750899476084 C 0.0 **** -0.24
19447 H 185.3343326587655 57.87030306573237 118.6083903269134 H 0.0 **** 0.06
19448 H 183.72594825671212 57.91956318779282 117.84670737565293 H 0.0 **** 0.06
19449 H 183.88295813121687 57.50304587472971 119.57005501209042 H 0.0 **** 0.06
19450 H 184.43804316064717 56.35944690769003 118.32505547755702 H 0.0 **** 0.06
19451 C 50.864157511750975 36.929507829134224 162.00700481867335 C 0.0 **** -0.24
19452 H 51.886829664457665 36.55193402809151 162.0320102396968 H 0.0 **** 0.06
19453 H 50.82040812459154 37.89317265246197 162.51449537871895 H 0.0 **** 0.06
19454 H 50.20391012262368 36.22267864505527 162.51003907532376 H 0.0 **** 0.06
19455 H 50.54756929874142 37.04898850324024 160.9712245168857 H 0.0 **** 0.06
19456 C 16.68206566358981 86.69396588789644 32.86120845144748 C 0.0 **** -0.24
19457 H 16.752983339653667 85.60756369222193 32.91213506005269 H 0.0 **** 0.06
19458 H 17.676520601362213 87.1161152836836 32.71300978993233 H 0.0 **** 0.06
19459 H 16.259669886320765 87.07566472463628 33.79099572789059 H 0.0 **** 0.06
19460 H 16.04035632111922 86.97658071737507 32.02685208623262 H 0.0 **** 0.06
19461 C 179.79633969023905 129.06530615607457 31.974099452043788 C 0.0 **** -0.24
19462 H 179.65522146000384 129.56554114983882 32.93274650669781 H 0.0 **** 0.06
19463 H 180.18407828216652 128.0608662897915 32.143557136978615 H 0.0 **** 0.06
19464 H 180.5042379627552 129.6320578141589 31.36989323230813 H 0.0 **** 0.06
19465 H 178.84038146190215 129.0033091254597 31.453460604693788 H 0.0 **** 0.06
19466 C 176.29974494587628 144.1434360213005 58.934652377874954 C 0.0 **** -0.24
19467 H 176.23870415562635 143.05624923675518 58.97199507037956 H 0.0 **** 0.06
19468 H 175.45550590872944 144.5353637160584 58.36682343721094 H 0.0 **** 0.06
19469 H 177.23087383799697 144.43893226399695 58.4519500697707 H 0.0 **** 0.06
19470 H 176.27280658118224 144.54398875665686 59.94827627489923 H 0.0 **** 0.06
19471 C 17.31919519436525 241.57075407404318 25.272841447512675 C 0.0 **** -0.24
19472 H 18.299969668832404 241.27857717988587 24.897403485737428 H 0.0 **** 0.06
19473 H 16.873512913995413 240.73580339644315 25.8139091365787 H 0.0 **** 0.06
19474 H 16.677594189973377 241.84480842947607 24.435040196620278 H 0.0 **** 0.06
19475 H 17.42608246797758 242.42363910217352 25.9426002114607 H 0.0 **** 0.06
19476 C 61.645056164381344 69.23775461085776 11.330044436592345 C 0.0 **** -0.24
19477 H 61.75475200300764 69.2285978813396 10.24528383933729 H 0.0 **** 0.06
19478 H 62.63061669958785 69.20165125084952 11.794999869774657 H 0.0 **** 0.06
19479 H 61.06202868583486 68.37168409291962 11.642667824502979 H 0.0 **** 0.06
19480 H 61.13268976989269 70.15018580743171 11.635284603558617 H 0.0 **** 0.06
19481 C 242.3446308785782 6.828077638645539 4.241537632979032 C 0.0 **** -0.24
19482 H 241.46694672328297 6.92928121100077 4.880121951657571 H 0.0 **** 0.06
19483 H 242.16433326758477 6.05308400627824 3.4962388908055573 H 0.0 **** 0.06
19484 H 243.2068932397027 6.554784029502983 4.849481536409172 H 0.0 **** 0.06
19485 H 242.5395560500793 7.776247442395643 3.740743496591037 H 0.0 **** 0.06
19486 C 173.65561608020676 32.57087345717663 115.64593462699085 C 0.0 **** -0.24
19487 H 173.78935324097296 33.52909634638341 116.14709011885154 H 0.0 **** 0.06
19488 H 173.35122394726653 31.819586649606876 116.37561616372241 H 0.0 **** 0.06
19489 H 174.59424475829513 32.26832929430607 115.18198549147633 H 0.0 **** 0.06
19490 H 172.88608757313708 32.66528488711704 114.88011942573166 H 0.0 **** 0.06
19491 C 226.64917857015632 137.13293750655876 123.66104016644533 C 0.0 **** -0.24
19492 H 226.0668472676249 137.81162073103164 123.03755006431786 H 0.0 **** 0.06
19493 H 227.55400715912185 137.63726374891968 123.99997354232366 H 0.0 **** 0.06
19494 H 226.91965683376878 136.2498290693778 123.08088020491138 H 0.0 **** 0.06
19495 H 226.05451600461254 136.83241645925906 124.52442658902282 H 0.0 **** 0.06
19496 C 88.80296068547688 118.64650694112794 80.0273823020091 C 0.0 **** -0.24
19497 H 87.82197951650659 118.25158990640236 80.29321506733399 H 0.0 **** 0.06
19498 H 89.1487276537996 119.31788643123511 80.81367827519736 H 0.0 **** 0.06
19499 H 88.730505740419 119.19462350329377 79.08747853353722 H 0.0 **** 0.06
19500 H 89.50749586548454 117.822990935235 79.91537726909476 H 0.0 **** 0.06
19501 C 169.8995259900094 5.1213781357234325 157.61037182655593 C 0.0 **** -0.24
19502 H 170.22652534359466 4.602048832158431 156.709356249691 H 0.0 **** 0.06
19503 H 170.50460458747025 4.794764544551811 158.45687347113196 H 0.0 **** 0.06
19504 H 168.85189024966695 4.890370195406746 157.80107643596278 H 0.0 **** 0.06
19505 H 170.01661752383464 6.196354776015966 157.4725227555148 H 0.0 **** 0.06
19506 C 51.5532231776985 58.41629384645532 81.76983270575147 C 0.0 **** -0.24
19507 H 51.73273419977164 57.842204838529454 82.67850105390144 H 0.0 **** 0.06
19508 H 51.77920228212605 59.4671144701056 81.95334847826018 H 0.0 **** 0.06
19509 H 50.50818627874429 58.31631051832093 81.47698158211324 H 0.0 **** 0.06
19510 H 52.191003498487646 58.040907096605935 80.97033873610653 H 0.0 **** 0.06
19511 C 169.17509326306154 13.876185620985353 10.667958861926508 C 0.0 **** -0.24
19512 H 169.67245708431787 14.845681674433507 10.631418393549282 H 0.0 **** 0.06
19513 H 168.16246675077102 14.001111910313767 11.05059253964157 H 0.0 **** 0.06
19514 H 169.7322512267277 13.207918844044315 11.324793765593967 H 0.0 **** 0.06
19515 H 169.13654520762296 13.451349195286838 9.665267672845971 H 0.0 **** 0.06
19516 C 15.692961935704147 11.267511301927172 35.02498225638422 C 0.0 **** -0.24
19517 H 15.075317969665377 12.163883098478365 35.071993888988715 H 0.0 **** 0.06
19518 H 15.633301731230347 10.837103488644644 34.024800096095504 H 0.0 **** 0.06
19519 H 15.335024553293977 10.541059268928947 35.75491639619722 H 0.0 **** 0.06
19520 H 16.727540011698352 11.52726375935012 35.24808185221818 H 0.0 **** 0.06
19521 C 143.5356720711623 39.82843657895128 3.051787929280863 C 0.0 **** -0.24
19522 H 142.99128066928841 40.70038201055033 3.4133909272846097 H 0.0 **** 0.06
19523 H 144.5833690960108 39.907767323014724 3.3421431390498526 H 0.0 **** 0.06
19524 H 143.46222101612017 39.77959998509888 1.9646809828080904 H 0.0 **** 0.06
19525 H 143.10469693359767 38.9260987456116 3.485004306825431 H 0.0 **** 0.06
19526 C 125.79596976799871 191.5093357051392 237.25224883254515 C 0.0 **** -0.24
19527 H 124.759120022545 191.17247532642597 237.28154511561124 H 0.0 **** 0.06
19528 H 126.0370954750471 192.02344457460498 238.18264607708892 H 0.0 **** 0.06
19529 H 125.93222193235374 192.1910932295687 236.41300477351652 H 0.0 **** 0.06
19530 H 126.45432488781876 190.64852060202026 237.13110646461118 H 0.0 **** 0.06
19531 C 140.05430283019152 86.64731976049768 233.95692572333704 C 0.0 **** -0.24
19532 H 139.70644065854844 87.64824856357626 233.70162000615463 H 0.0 **** 0.06
19533 H 139.43086993233763 86.23897230862585 234.75284931096667 H 0.0 **** 0.06
19534 H 141.08926209580645 86.69714929122924 234.29518879386654 H 0.0 **** 0.06
19535 H 139.98851916486475 86.00557920325144 233.07780278284125 H 0.0 **** 0.06
19536 C 145.23698075106398 52.51027866370342 204.4036691769652 C 0.0 **** -0.24
19537 H 145.3517289040543 51.69714489152409 203.68682268004352 H 0.0 **** 0.06
19538 H 144.6139711356114 53.29267176782173 203.9683352416685 H 0.0 **** 0.06
19539 H 146.21760091361196 52.920457622699814 204.6478983749839 H 0.0 **** 0.06
19540 H 144.76578339722644 52.13161305929893 205.3105936397057 H 0.0 **** 0.06
19541 C 100.46058168443696 37.19527731474507 175.3498797356777 C 0.0 **** -0.24
19542 H 99.98518104862418 36.602830429783694 176.13123336066252 H 0.0 **** 0.06
19543 H 100.57257751312201 38.22481487341783 175.69125186061007 H 0.0 **** 0.06
19544 H 99.84311715664714 37.1748476491269 174.45193499707244 H 0.0 **** 0.06
19545 H 101.44277442171605 36.77852267097862 175.12558847739052 H 0.0 **** 0.06
19546 C 138.71652342899995 203.44900051392602 117.34636653360539 C 0.0 **** -0.24
19547 H 138.25374203810563 202.48140426810522 117.5417724269158 H 0.0 **** 0.06
19548 H 139.67483332539416 203.50389400052177 117.86418545015553 H 0.0 **** 0.06
19549 H 138.0628595680141 204.242989410319 117.70766247813842 H 0.0 **** 0.06
19550 H 138.87473711670225 203.5670202912663 116.27492996577703 H 0.0 **** 0.06
19551 C 237.91868067827514 189.15759500342233 226.65186427560516 C 0.0 **** -0.24
19552 H 238.41673478806996 189.49323460573834 227.56116825376844 H 0.0 **** 0.06
19553 H 238.53882270282796 189.39796430842506 225.7886099501704 H 0.0 **** 0.06
19554 H 236.9552527274673 189.6603980118037 226.5586103052922 H 0.0 **** 0.06
19555 H 237.76284267238006 188.0804640308483 226.6988955345731 H 0.0 **** 0.06
19556 C 88.89767569759874 12.475827232866067 93.06136634986606 C 0.0 **** -0.24
19557 H 89.2397325865949 11.980790448453604 93.9702207032189 H 0.0 **** 0.06
19558 H 87.83698911893308 12.271839445388053 92.91451426537944 H 0.0 **** 0.06
19559 H 89.46239873897403 12.099843144360804 92.20862992265685 H 0.0 **** 0.06
19560 H 89.0522141386545 13.55072464269324 93.154242588951 H 0.0 **** 0.06
19561 C 208.36076232852253 137.0325156273669 171.6693827487478 C 0.0 **** -0.24
19562 H 208.10062383704988 137.42645690574926 170.68634164356044 H 0.0 **** 0.06
19563 H 209.44389191606965 136.93814201830253 171.74752037294465 H 0.0 **** 0.06
19564 H 207.89950460795956 136.054169185697 171.80219885872248 H 0.0 **** 0.06
19565 H 207.99864052151946 137.7129862901492 172.44047680878649 H 0.0 **** 0.06
19566 C 196.3667166615723 64.13121095530909 40.2353255386908 C 0.0 **** -0.24
19567 H 196.7174652805377 63.577923336845004 41.10658427636564 H 0.0 **** 0.06
19568 H 196.59709636840034 65.18917223408175 40.36126478385637 H 0.0 **** 0.06
19569 H 195.29005476323488 64.0029422824934 40.133542175833654 H 0.0 **** 0.06
19570 H 196.86447714952703 63.754296434828746 39.3415786422421 H 0.0 **** 0.06
19571 C 159.9599502453973 99.0395916779556 125.84734039475279 C 0.0 **** -0.24
19572 H 160.5905058047388 98.5572042860102 125.10023754827498 H 0.0 **** 0.06
19573 H 159.1857600002323 98.34295657079619 126.17222588450542 H 0.0 **** 0.06
19574 H 159.49378106713803 99.92409246896685 125.41237117249892 H 0.0 **** 0.06
19575 H 160.5684578759897 99.3320924278085 126.70223882739893 H 0.0 **** 0.06
19576 C 22.212257780282556 195.6937236466089 93.15682276425352 C 0.0 **** -0.24
19577 H 21.302506295292176 195.70009251043282 92.5560497229225 H 0.0 **** 0.06
19578 H 22.019038432591913 195.18542849878472 94.10081846498267 H 0.0 **** 0.06
19579 H 22.525455385731718 196.7195828224622 93.35215014449713 H 0.0 **** 0.06
19580 H 22.999884305105994 195.1700027710791 92.6152154620822 H 0.0 **** 0.06
19581 C 55.95757689141382 224.27213827611715 23.932596538497336 C 0.0 **** -0.24
19582 H 55.15237923324801 224.45423128515512 23.22153998191422 H 0.0 **** 0.06
19583 H 56.05244343234415 225.12735208387483 24.60206368190447 H 0.0 **** 0.06
19584 H 56.89396743651207 224.12827945816485 23.392498429293113 H 0.0 **** 0.06
19585 H 55.73321748217694 223.3775426786081 24.515174567846742 H 0.0 **** 0.06
19586 C 81.3804394794268 21.371068062051307 88.46055719926352 C 0.0 **** -0.24
19587 H 80.46019098966312 21.875444670208566 88.75448154127216 H 0.0 **** 0.06
19588 H 81.24817281144794 20.292681260486034 88.54688217529966 H 0.0 **** 0.06
19589 H 82.19328224343977 21.691442374878164 89.11199753120076 H 0.0 **** 0.06
19590 H 81.62024408690661 21.626666865069325 87.42780476815699 H 0.0 **** 0.06
19591 C 147.14847988321478 143.3605603210685 74.57563287891361 C 0.0 **** -0.24
19592 H 146.61737020636028 143.9416849261426 75.32930739136549 H 0.0 **** 0.06
19593 H 147.7814886304466 144.02294390567874 73.98459101200248 H 0.0 **** 0.06
19594 H 146.42768261495243 142.86873369536494 73.92267236370796 H 0.0 **** 0.06
19595 H 147.76603232827134 142.60860909740555 75.06630170672196 H 0.0 **** 0.06
19596 C 65.6372926177333 2.800486332260448 161.31653329814637 C 0.0 **** -0.24
19597 H 65.47235192079256 2.1301851981972106 162.16034875748366 H 0.0 **** 0.06
19598 H 66.47915239597083 3.457291961619916 161.53354951750174 H 0.0 **** 0.06
19599 H 64.74159293131709 3.399708864704934 161.14862852932927 H 0.0 **** 0.06
19600 H 65.85423685616311 2.213559352826337 160.4240398879855 H 0.0 **** 0.06
19601 C 178.64674915913935 62.18452877339482 48.506671863868746 C 0.0 **** -0.24
19602 H 178.05240878874991 61.47692576884387 47.928529941858145 H 0.0 **** 0.06
19603 H 178.37129581326258 63.20133772210619 48.22801332994783 H 0.0 **** 0.06
19604 H 179.70503982409232 62.0241493361203 48.29851355232995 H 0.0 **** 0.06
19605 H 178.45842683474638 62.03369649293987 49.56964406227539 H 0.0 **** 0.06
19606 C 121.51177264582978 92.3993110572224 109.79025996304603 C 0.0 **** -0.24
19607 H 122.22173085835217 92.3634132226916 108.96430339913911 H 0.0 **** 0.06
19608 H 121.64978158810203 91.52511623866164 110.42687957037921 H 0.0 **** 0.06
19609 H 120.49560617346557 92.40444565663697 109.39430426093506 H 0.0 **** 0.06
19610 H 121.67809777282199 93.30480899210366 110.37407073226458 H 0.0 **** 0.06
19611 C 233.39252337179437 198.29729254764692 237.49566313649837 C 0.0 **** -0.24
19612 H 233.5121461759817 198.62729504767748 238.52745056652745 H 0.0 **** 0.06
19613 H 232.5421843613942 198.81097790911195 237.04656349155192 H 0.0 **** 0.06
19614 H 233.21806885963946 197.22139863836844 237.47753883663864 H 0.0 **** 0.06
19615 H 234.29621070589297 198.5287260959848 236.93258385624935 H 0.0 **** 0.06
19616 C 37.661179018538434 89.68258306127902 236.1158212331037 C 0.0 **** -0.24
19617 H 37.44825642303334 90.7372964232757 235.94221173049354 H 0.0 **** 0.06
19618 H 36.864753806757534 89.07493366623734 235.68504324676167 H 0.0 **** 0.06
19619 H 37.72127002883181 89.49539620978734 237.18807620505356 H 0.0 **** 0.06
19620 H 38.610755108591604 89.42183255296922 235.64832150901537 H 0.0 **** 0.06
19621 C 211.0316813682337 123.04573445270643 81.64429123243607 C 0.0 **** -0.24
19622 H 210.26154591827964 123.08286371560558 82.41403818102012 H 0.0 **** 0.06
19623 H 210.9906753925888 123.95461348793293 81.0439263607951 H 0.0 **** 0.06
19624 H 210.86373416625258 122.17910622184792 81.00377985116236 H 0.0 **** 0.06
19625 H 212.0117364178469 122.96493469075557 82.11519575983024 H 0.0 **** 0.06
19626 C 34.49468063322328 37.122607490172385 216.77606946087388 C 0.0 **** -0.24
19627 H 35.015434729451925 36.239968486518904 217.14826314162443 H 0.0 **** 0.06
19628 H 33.485615400490445 36.84709168540459 216.47091383159147 H 0.0 **** 0.06
19629 H 35.034972353751726 37.52898935106461 215.92191069649715 H 0.0 **** 0.06
19630 H 34.44345471609685 37.87296217507836 217.56503924582822 H 0.0 **** 0.06
19631 C 187.29857426624795 132.62916720501843 56.71130615893165 C 0.0 **** -0.24
19632 H 186.80072483413963 133.48238607661088 57.17317743913159 H 0.0 **** 0.06
19633 H 187.77347195433748 132.02371083435193 57.48302005260575 H 0.0 **** 0.06
19634 H 188.05569759847748 132.98659231664018 56.01166257704665 H 0.0 **** 0.06
19635 H 186.56475743129607 132.02668643869444 56.17523213863274 H 0.0 **** 0.06
19636 C 41.382738856126 37.23115515298494 233.9159540112893 C 0.0 **** -0.24
19637 H 41.584470053558846 36.52989159177841 233.10620064674987 H 0.0 **** 0.06
19638 H 42.00926845118937 38.11526135958982 233.79456019364818 H 0.0 **** 0.06
19639 H 41.603653119146145 36.75604552684385 234.87143781259047 H 0.0 **** 0.06
19640 H 40.33335180113869 37.523410990952215 233.88989839208864 H 0.0 **** 0.06
19641 C 20.573163871319366 76.30054070931638 128.9654373808832 C 0.0 **** -0.24
19642 H 21.370958678391617 76.35697960830802 128.2255139684592 H 0.0 **** 0.06
19643 H 19.614979066392053 76.48866466361721 128.4821664254947 H 0.0 **** 0.06
19644 H 20.74296074321238 77.04879530322864 129.7398304703021 H 0.0 **** 0.06
19645 H 20.56550772882116 75.30796654409329 129.41517449681749 H 0.0 **** 0.06
19646 C 226.58061788997202 55.500418656636555 123.71505079329398 C 0.0 **** -0.24
19647 H 225.85911624842123 55.32026624592771 122.91790961218075 H 0.0 **** 0.06
19648 H 226.1872943495441 55.11253407337324 124.65474101479046 H 0.0 **** 0.06
19649 H 226.75774578521128 56.57142227125661 123.80895248049231 H 0.0 **** 0.06
19650 H 227.5181551191974 54.99625699150755 123.47735657084198 H 0.0 **** 0.06
19651 C 208.54320318811227 34.316000979540476 147.44664876388342 C 0.0 **** -0.24
19652 H 209.007326825002 35.235988376457186 147.09346185455405 H 0.0 **** 0.06
19653 H 207.5179905631916 34.26247227369653 147.07987046052335 H 0.0 **** 0.06
19654 H 208.5397685863348 34.305978262438416 148.53664386417987 H 0.0 **** 0.06
19655 H 209.10636897391998 33.459429574819495 147.07699042207673 H 0.0 **** 0.06
19656 C 142.2684171491719 157.43792859878334 241.7829603335135 C 0.0 **** -0.24
19657 H 142.79748309132214 157.32059558128861 242.7285541988799 H 0.0 **** 0.06
19658 H 141.22100900435888 157.66737133869063 241.97855628184232 H 0.0 **** 0.06
19659 H 142.33882051915683 156.51293197315968 241.21089812143822 H 0.0 **** 0.06
19660 H 142.71831020976632 158.25227013923848 241.21357761983265 H 0.0 **** 0.06
19661 C 101.35531966426643 145.98638421285384 12.961836741378235 C 0.0 **** -0.24
19662 H 101.00386913359137 145.01871624998785 12.603079424961336 H 0.0 **** 0.06
19663 H 101.37394018198557 145.984848279033 14.05167915489956 H 0.0 **** 0.06
19664 H 100.68260764942934 146.7693096387577 12.610406946795123 H 0.0 **** 0.06
19665 H 102.35949410515639 146.17110158902682 12.580880382322519 H 0.0 **** 0.06
19666 C 207.89263596570154 117.20535027370735 7.15848070096726 C 0.0 **** -0.24
19667 H 207.89825515861273 118.21584136935442 7.565240734024684 H 0.0 **** 0.06
19668 H 208.6150689061607 117.13784543898751 6.345010164416038 H 0.0 **** 0.06
19669 H 206.89687571415894 116.97078489154106 6.781560050017532 H 0.0 **** 0.06
19670 H 208.16023235439437 116.49619528087268 7.942781633573503 H 0.0 **** 0.06
19671 C 180.9635189584675 8.60802890125899 1.6844338417334654 C 0.0 **** -0.24
19672 H 180.9864976455619 7.662837105282691 2.227751453833065 H 0.0 **** 0.06
19673 H 180.96194382878488 9.435234788076201 2.395216172888624 H 0.0 **** 0.06
19674 H 180.06384302456692 8.65306396715431 1.0723614553812553 H 0.0 **** 0.06
19675 H 181.84323773655495 8.680501382226879 1.0453523328689158 H 0.0 **** 0.06
19676 C 229.13837874406613 223.67133172971415 21.23792705241729 C 0.0 **** -0.24
19677 H 228.657648600098 222.76068902581378 21.594458898916827 H 0.0 **** 0.06
19678 H 228.7148330860569 223.9522597684139 20.274675235473353 H 0.0 **** 0.06
19679 H 230.20869802376853 223.4968115655632 21.127727589379347 H 0.0 **** 0.06
19680 H 228.97279962793505 224.47407950873375 21.957410298930398 H 0.0 **** 0.06
19681 C 74.6736555915495 126.52166104786434 181.4094413058222 C 0.0 **** -0.24
19682 H 74.68402190388375 126.43081991991966 182.4956668806861 H 0.0 **** 0.06
19683 H 74.40195838336479 125.56167170350372 180.96821724248957 H 0.0 **** 0.06
19684 H 75.66281037544178 126.81647636681723 181.0594280091707 H 0.0 **** 0.06
19685 H 73.94331679019425 127.276279274024 181.11576606574005 H 0.0 **** 0.06
19686 C 185.09727395680102 51.78366054515402 51.86560140151866 C 0.0 **** -0.24
19687 H 184.56852082673993 51.00836319411553 51.30996957509183 H 0.0 **** 0.06
19688 H 184.37629301822764 52.41193875743383 52.38766895796604 H 0.0 **** 0.06
19689 H 185.6779110903763 52.39360645927539 51.173257502855535 H 0.0 **** 0.06
19690 H 185.76684094039751 51.31821578821415 52.5896551374922 H 0.0 **** 0.06
19691 C 177.30556495502128 244.8278401045032 123.25904137956616 C 0.0 **** -0.24
19692 H 178.37172920354442 245.04453420030012 123.3226655043475 H 0.0 **** 0.06
19693 H 176.75773003458033 245.74979404316622 123.06171319275256 H 0.0 **** 0.06
19694 H 176.96576722902012 244.3970006724337 124.20078627969943 H 0.0 **** 0.06
19695 H 177.12674560744784 244.11871705815034 122.4499099137496 H 0.0 **** 0.06
19696 C 154.52658660859262 222.28966999595625 81.42068004626549 C 0.0 **** -0.24
19697 H 154.6530426982172 222.15819564640492 80.34615646826927 H 0.0 **** 0.06
19698 H 154.54627797435654 223.3531080958794 81.66101363944736 H 0.0 **** 0.06
19699 H 155.33451335613262 221.78322487019526 81.94727311398321 H 0.0 **** 0.06
19700 H 153.57050533240638 221.86555101296028 81.72838974063302 H 0.0 **** 0.06
19701 C 246.1563539084187 91.93993075305806 240.6618744016341 C 0.0 **** -0.24
19702 H 245.71359433073076 92.28531057853726 241.5956593305861 H 0.0 **** 0.06
19703 H 245.80733390637326 90.9287714315237 240.44765616335056 H 0.0 **** 0.06
19704 H 247.2426470058968 91.93757855921555 240.7541367827641 H 0.0 **** 0.06
19705 H 245.86182024978103 92.60610841914826 239.85113226773245 H 0.0 **** 0.06
19706 C 77.52680117952278 22.388136517703828 2.277508921524756 C 0.0 **** -0.24
19707 H 77.08149122269802 21.39289955206246 2.2774890531819523 H 0.0 **** 0.06
19708 H 78.38154717540644 22.40357645776467 1.6007641640726717 H 0.0 **** 0.06
19709 H 77.8566627437051 22.637510458462003 3.2863605269515546 H 0.0 **** 0.06
19710 H 76.78713707321725 23.116337182274236 1.946384533266425 H 0.0 **** 0.06
19711 C 227.30015129633162 240.54976104697283 176.24767178419248 C 0.0 **** -0.24
19712 H 227.36622673492838 240.0675942942432 177.2229839536311 H 0.0 **** 0.06
19713 H 226.25159785109895 240.67367956340777 175.97569853271588 H 0.0 **** 0.06
19714 H 227.7992182612044 239.93116601400908 175.50218341220906 H 0.0 **** 0.06
19715 H 227.78237239219487 241.52592834873175 176.29158961186843 H 0.0 **** 0.06
19716 C 129.27108500515752 200.3957489187677 185.91342073339152 C 0.0 **** -0.24
19717 H 129.88435498540457 199.70618291111276 185.33182960684317 H 0.0 **** 0.06
19718 H 129.66974694082984 200.47170652843778 186.92518388462497 H 0.0 **** 0.06
19719 H 128.24628303509175 200.02501082826493 185.95280055437786 H 0.0 **** 0.06
19720 H 129.28339101165858 201.37810595405875 185.44169540805143 H 0.0 **** 0.06
19721 C 44.70337144808559 215.1773007541941 122.40967946580724 C 0.0 **** -0.24
19722 H 44.612398739975845 215.71628703708 123.35288852293027 H 0.0 **** 0.06
19723 H 44.68118264039751 215.88727309409708 121.58157589503796 H 0.0 **** 0.06
19724 H 43.87422115258741 214.47695149043463 122.30973316034385 H 0.0 **** 0.06
19725 H 45.64525978885547 214.6293288677537 122.39387661485438 H 0.0 **** 0.06
19726 C 232.22482791489648 98.31366585301515 143.17561545340493 C 0.0 **** -0.24
19727 H 232.246489060735 97.36638599959602 142.63681749200512 H 0.0 **** 0.06
19728 H 231.41211936499437 98.93149501239066 142.79310203415747 H 0.0 **** 0.06
19729 H 233.173089187114 98.83337301639853 143.03438654674773 H 0.0 **** 0.06
19730 H 232.068571120059 98.12480078664478 144.2377709840898 H 0.0 **** 0.06
19731 C 100.51454673643266 25.723761128201247 135.18996218173734 C 0.0 **** -0.24
19732 H 100.84597873476247 25.855576465075316 136.21938877222172 H 0.0 **** 0.06
19733 H 100.58722885352813 26.673324540692718 134.65982427179057 H 0.0 **** 0.06
19734 H 99.47892062203056 25.381868050281895 135.1826644584571 H 0.0 **** 0.06
19735 H 101.14497164806133 24.98310153071934 134.6973077729199 H 0.0 **** 0.06
19736 C 176.00695525672904 235.04550471048302 232.84469463761025 C 0.0 **** -0.24
19737 H 176.91860483736355 235.59628601848402 233.07504340865208 H 0.0 **** 0.06
19738 H 176.22527377988763 233.97739198103324 232.81814657384234 H 0.0 **** 0.06
19739 H 175.62634646337847 235.36289536325242 231.87403677521087 H 0.0 **** 0.06
19740 H 175.2585718205325 235.24404255647636 233.61126982357894 H 0.0 **** 0.06
19741 C 233.19441927702906 211.58682806271855 137.87053843648164 C 0.0 **** -0.24
19742 H 234.13200134248373 211.03268313147518 137.85265495973417 H 0.0 **** 0.06
19743 H 232.63178432955633 211.37806169615894 136.96094122708325 H 0.0 **** 0.06
19744 H 233.40545025263444 212.6550476176015 137.93021665301936 H 0.0 **** 0.06
19745 H 232.60983107306126 211.28352265637238 138.73857934729452 H 0.0 **** 0.06
19746 C 0.5507699228611642 97.55154830378103 54.48775684098334 C 0.0 **** -0.24
19747 H -0.3286913744920952 97.09600667081199 54.94210715665028 H 0.0 **** 0.06
19748 H 0.3274234581249118 98.5832042860439 54.21661323282305 H 0.0 **** 0.06
19749 H 0.8282888765683794 96.99253143818746 53.5937283458027 H 0.0 **** 0.06
19750 H 1.377200713427655 97.5325293980465 55.19851488899329 H 0.0 **** 0.06
19751 C 93.9268926160648 81.81068847811639 163.3929051906792 C 0.0 **** -0.24
19752 H 93.54348125589618 82.14662479763564 164.3563007927374 H 0.0 **** 0.06
19753 H 94.93960511520626 81.42887255054077 163.51896292501883 H 0.0 **** 0.06
19754 H 93.93749928350812 82.64744600726604 162.69449492114998 H 0.0 **** 0.06
19755 H 93.28523068606236 81.0198421893752 163.00357154133212 H 0.0 **** 0.06
19756 C 137.19713418906164 136.49711264199337 4.5674826556795125 C 0.0 **** -0.24
19757 H 136.97761147758254 135.45922259877082 4.816198554302403 H 0.0 **** 0.06
19758 H 136.27536603893864 137.07902793693253 4.5923753005503585 H 0.0 **** 0.06
19759 H 137.63234964306318 136.5467185960474 3.5690517200822143 H 0.0 **** 0.06
19760 H 137.90293363420975 136.90247327621282 5.291352431598739 H 0.0 **** 0.06
19761 C 70.54548581934293 111.84698295239701 236.35749323694768 C 0.0 **** -0.24
19762 H 71.58962133419485 112.02864087574326 236.10409633878 H 0.0 **** 0.06
19763 H 70.47413582135758 111.53126243951203 237.39875560220432 H 0.0 **** 0.06
19764 H 70.14554320905737 111.06511596678925 235.71220609923841 H 0.0 **** 0.06
19765 H 69.97269334984762 112.76381246144516 236.21600467568447 H 0.0 **** 0.06
19766 C 232.0291281636205 86.4951305255938 91.15410077607862 C 0.0 **** -0.24
19767 H 231.78735733850084 85.44798194510452 91.33635413928803 H 0.0 **** 0.06
19768 H 233.10751343864916 86.6035804518371 91.03041812017318 H 0.0 **** 0.06
19769 H 231.69801910562177 87.09701352801488 92.00050801500049 H 0.0 **** 0.06
19770 H 231.52398950064602 86.8321773800298 90.24822168337315 H 0.0 **** 0.06
19771 C 193.73877350696182 177.1545448722361 157.86074123834786 C 0.0 **** -0.24
19772 H 193.67341649895482 177.99128903114558 157.164691490966 H 0.0 **** 0.06
19773 H 193.5904571186186 177.51656311697178 158.87831364974397 H 0.0 **** 0.06
19774 H 194.72231130150305 176.69148276723587 157.7790132377389 H 0.0 **** 0.06
19775 H 192.96964721663693 176.42083654323272 157.61860406536937 H 0.0 **** 0.06
19776 C 68.12555466792116 59.516657084719725 187.67119796250321 C 0.0 **** -0.24
19777 H 67.08241844532986 59.83295344309769 187.68457728655932 H 0.0 **** 0.06
19778 H 68.67813096452628 60.11844777627857 186.94891132990398 H 0.0 **** 0.06
19779 H 68.18296810876717 58.465710132398925 187.3881400755387 H 0.0 **** 0.06
19780 H 68.55833958419467 59.64908124113026 188.66186723637887 H 0.0 **** 0.06
19781 C 115.85541944013687 73.35352041376495 96.81905793339658 C 0.0 **** -0.24
19782 H 116.82169526483884 73.13177491356214 97.2726949447692 H 0.0 **** 0.06
19783 H 115.81319404605779 72.91429950872657 95.8226054372968 H 0.0 **** 0.06
19784 H 115.72992458252381 74.4340701764998 96.74584710220265 H 0.0 **** 0.06
19785 H 115.05981801848253 72.936231886001 97.43500128783998 H 0.0 **** 0.06
19786 C 201.6450608597035 198.47552435510062 73.6782098442888 C 0.0 **** -0.24
19787 H 201.8262006683514 197.4502574909074 74.00242552199802 H 0.0 **** 0.06
19788 H 202.2538568607439 198.69186887296956 72.80066381009416 H 0.0 **** 0.06
19789 H 201.90769727794486 199.16171267392673 74.48308267125702 H 0.0 **** 0.06
19790 H 200.59037458605343 198.59523521791886 73.42876295517766 H 0.0 **** 0.06
19791 C 65.92243982648532 199.61861759021926 27.754326749225598 C 0.0 **** -0.24
19792 H 65.8750221094688 199.7649603524111 28.83342263246206 H 0.0 **** 0.06
19793 H 66.93964653340933 199.35057475160545 27.46825661108818 H 0.0 **** 0.06
19794 H 65.63378756690852 200.54088492671374 27.2507114232956 H 0.0 **** 0.06
19795 H 65.24042857203273 198.81877702845614 27.467085932682025 H 0.0 **** 0.06
19796 C 82.06014563696951 37.30344245708403 105.44418758628495 C 0.0 **** -0.24
19797 H 81.0991799783794 36.802437424600924 105.33016336403952 H 0.0 **** 0.06
19798 H 82.80348833973207 36.58737406811001 105.79410365367377 H 0.0 **** 0.06
19799 H 81.96407731200091 38.11102610004062 106.16998721884428 H 0.0 **** 0.06
19800 H 82.37347604790082 37.713318898701914 104.48414543989722 H 0.0 **** 0.06
19801 C 125.24642099262806 173.57998620811495 48.993454170037424 C 0.0 **** -0.24
19802 H 124.18325497514638 173.5359499268239 48.7528166535036 H 0.0 **** 0.06
19803 H 125.41301503382559 173.15136405411488 49.98176082525147 H 0.0 **** 0.06
19804 H 125.5766297711344 174.61816861607576 48.9864536104335 H 0.0 **** 0.06
19805 H 125.80951723163363 173.01446705048357 48.250961558746496 H 0.0 **** 0.06
19806 C 134.07794749307618 225.75771241760822 167.394645904476 C 0.0 **** -0.24
19807 H 134.76420413517806 224.9616967107473 167.68400275464407 H 0.0 **** 0.06
19808 H 133.05114363810785 225.41744171856408 167.5312118967839 H 0.0 **** 0.06
19809 H 134.2399284533815 226.01401110299486 166.34816097326794 H 0.0 **** 0.06
19810 H 134.2554971708017 226.6346221185145 168.01642966735517 H 0.0 **** 0.06
19811 C 100.1562606679648 86.70468439577729 155.98607894000506 C 0.0 **** -0.24
19812 H 100.57772120026277 86.1105297891778 155.17496125638246 H 0.0 **** 0.06
19813 H 99.94558910239917 87.7122474462195 155.62678690656412 H 0.0 **** 0.06
19814 H 100.86835792943288 86.75344174934872 156.80881447631384 H 0.0 **** 0.06
19815 H 99.23243067730633 86.24165742756986 156.33221437573948 H 0.0 **** 0.06
19816 C 25.96335396458106 30.07080324265577 68.19423097692817 C 0.0 **** -0.24
19817 H 26.370110975680632 31.06168186444829 67.99402894711488 H 0.0 **** 0.06
19818 H 25.934182413737076 29.90124297072809 69.27118544059405 H 0.0 **** 0.06
19819 H 26.596480896217344 29.3179777278567 67.72508963603352 H 0.0 **** 0.06
19820 H 24.954751690448788 30.00273976945897 67.78778740692542 H 0.0 **** 0.06
19821 C 40.94691797438125 108.42396387841117 203.43676293240125 C 0.0 **** -0.24
19822 H 41.507935954286125 107.67968098747659 204.00081200946633 H 0.0 **** 0.06
19823 H 41.62219901763612 109.2126754675871 203.10359312551688 H 0.0 **** 0.06
19824 H 40.171966144655784 108.85388355584027 204.07257447410618 H 0.0 **** 0.06
19825 H 40.48528434115829 107.95100040892177 202.57007468812876 H 0.0 **** 0.06
19826 C 216.71961931480914 224.97570894275538 208.35129250604075 C 0.0 **** -0.24
19827 H 216.75577454229162 225.8909333262201 207.75989526032038 H 0.0 **** 0.06
19828 H 217.45847689151006 224.26927393839787 207.97288844225318 H 0.0 **** 0.06
19829 H 215.7253217978075 224.53600802356908 208.27921539995168 H 0.0 **** 0.06
19830 H 216.9393691173218 225.20781937134362 209.39375945999177 H 0.0 **** 0.06
19831 C 51.48525968766536 192.5726172184789 246.41085705548016 C 0.0 **** -0.24
19832 H 50.42818003257253 192.52870056045603 246.14859669014797 H 0.0 **** 0.06
19833 H 51.90326879027022 193.52090135113104 246.07473482807592 H 0.0 **** 0.06
19834 H 52.01323755872805 191.74970936881624 245.92808317827942 H 0.0 **** 0.06
19835 H 51.59414540867918 192.4891650101751 247.4916147460005 H 0.0 **** 0.06
19836 C 145.8409776678987 18.192887124251243 124.98153073017 C 0.0 **** -0.24
19837 H 145.4461111420676 17.476177029291335 125.70157839193604 H 0.0 **** 0.06
19838 H 146.75832655451916 18.63307382201316 125.37353362394518 H 0.0 **** 0.06
19839 H 145.10498268209668 18.978848947781216 124.8110227663459 H 0.0 **** 0.06
19840 H 146.0536869991744 17.684293392333515 124.04161333058579 H 0.0 **** 0.06
19841 C 33.58538291216948 157.56515175971174 196.96675170321748 C 0.0 **** -0.24
19842 H 32.86453652170414 157.26648442974636 196.20503923422052 H 0.0 **** 0.06
19843 H 34.43357685580034 156.88061189206152 196.95230269134498 H 0.0 **** 0.06
19844 H 33.11034753152566 157.53661270615157 197.9467396962109 H 0.0 **** 0.06
19845 H 33.93231774719615 158.57763102899955 196.75977943300882 H 0.0 **** 0.06
19846 C 153.12355026758934 148.16792608580653 62.622806335286754 C 0.0 **** -0.24
19847 H 152.03704174910047 148.1753486774997 62.53803187019301 H 0.0 **** 0.06
19848 H 153.56283395751495 148.49755128367332 61.681591890031825 H 0.0 **** 0.06
19849 H 153.46283100415553 147.1572906002829 62.84861612303129 H 0.0 **** 0.06
19850 H 153.42936830643714 148.84145898746365 63.42367606941539 H 0.0 **** 0.06
19851 C 6.761670289105325 223.66108125240115 76.45179929481966 C 0.0 **** -0.24
19852 H 7.748708266151127 223.28183694570615 76.18914677422092 H 0.0 **** 0.06
19853 H 6.776847214897387 224.75136950986692 76.44196288850796 H 0.0 **** 0.06
19854 H 6.490888445085432 223.3101079628058 77.44791199841032 H 0.0 **** 0.06
19855 H 6.0302372302873835 223.30101059122572 75.72817551813955 H 0.0 **** 0.06
19856 C 132.4068137043265 59.56947478344958 21.205726984583208 C 0.0 **** -0.24
19857 H 132.51788422064095 60.50897409853107 21.747215624744484 H 0.0 **** 0.06
19858 H 132.17623195950813 58.76909445896115 21.908982248721685 H 0.0 **** 0.06
19859 H 133.33591249845065 59.339799256249876 20.684073697458842 H 0.0 **** 0.06
19860 H 131.59711339710182 59.66157163721073 20.48101934511911 H 0.0 **** 0.06
19861 C 137.77747887009673 110.79409054256337 112.47363573752284 C 0.0 **** -0.24
19862 H 138.63715475641007 110.53290235603677 113.09099760355969 H 0.0 **** 0.06
19863 H 137.9346821388428 110.42602721215297 111.4594631228947 H 0.0 **** 0.06
19864 H 137.66110085846628 111.87701909908736 112.45423329367392 H 0.0 **** 0.06
19865 H 136.87912341359467 110.33854940144894 112.89080874283317 H 0.0 **** 0.06
19866 C 223.195558079141 182.23464067503704 147.81857118906638 C 0.0 **** -0.24
19867 H 223.89471847157373 181.44996223211288 148.10761626482412 H 0.0 **** 0.06
19868 H 223.12819504008326 182.27776908632217 146.73131743109934 H 0.0 **** 0.06
19869 H 223.5486646846749 183.19324848150833 148.20007528843763 H 0.0 **** 0.06
19870 H 222.2126840798407 182.0167294890027 148.2363486240532 H 0.0 **** 0.06
19871 C 61.16880542608277 23.321390646099246 66.14639347585174 C 0.0 **** -0.24
19872 H 60.40832646839155 23.58565984375886 66.88025593004431 H 0.0 **** 0.06
19873 H 61.960307566346614 24.072045759448173 66.15673034816848 H 0.0 **** 0.06
19874 H 60.71807658018008 23.281483629213227 65.15406111224141 H 0.0 **** 0.06
19875 H 61.589866482066526 22.346743535728677 66.39436559614319 H 0.0 **** 0.06
19876 C 94.71579658855077 166.37652577855368 158.20214494292614 C 0.0 **** -0.24
19877 H 95.71593590060749 166.7466987222244 157.97481494951435 H 0.0 **** 0.06
19878 H 93.97365879418962 167.03705049281552 157.75427201374643 H 0.0 **** 0.06
19879 H 94.57536414236077 166.35067140564203 159.2824170574659 H 0.0 **** 0.06
19880 H 94.60100692315999 165.37077119949632 157.79640901829893 H 0.0 **** 0.06
19881 C 131.71345672819893 184.6469943329064 70.76626706559432 C 0.0 **** -0.24
19882 H 132.12668844094637 184.17100281490275 69.87709205805118 H 0.0 **** 0.06
19883 H 130.62636418721647 184.56444214249785 70.75196605366611 H 0.0 **** 0.06
19884 H 131.9982276971324 185.69893832197542 70.78033497184498 H 0.0 **** 0.06
19885 H 132.10351301528166 184.15301489744962 71.65652993991426 H 0.0 **** 0.06
19886 C 2.966866067432022 56.88265186635053 69.98573112900831 C 0.0 **** -0.24
19887 H 2.669558702418783 57.769841769589306 70.54522016328204 H 0.0 **** 0.06
19888 H 2.5854810302925557 56.95197422453825 68.96660923216595 H 0.0 **** 0.06
19889 H 2.556020208629036 55.99567654606116 70.46826820849284 H 0.0 **** 0.06
19890 H 4.054547019374752 56.814358192639446 69.96382928316322 H 0.0 **** 0.06
19891 C 20.140693459921295 104.268369289118 67.16937849114328 C 0.0 **** -0.24
19892 H 20.386168089827834 103.29505853717896 66.74572067485164 H 0.0 **** 0.06
19893 H 19.28663669387717 104.16739653116275 67.83960913692229 H 0.0 **** 0.06
19894 H 19.893054658880715 104.96252856424235 66.36617397413346 H 0.0 **** 0.06
19895 H 20.996908956106992 104.6481822728482 67.72696049594074 H 0.0 **** 0.06
19896 C 111.35857093604474 103.6582432930733 222.55700478548044 C 0.0 **** -0.24
19897 H 112.05007848016561 102.81816802655266 222.48666674882992 H 0.0 **** 0.06
19898 H 111.81524948755293 104.45501236453129 223.14438993977134 H 0.0 **** 0.06
19899 H 110.43757351388192 103.33160778380184 223.03985316870722 H 0.0 **** 0.06
19900 H 111.13287781822234 104.02673982617367 221.55628779687234 H 0.0 **** 0.06
19901 C 233.42792976408504 133.7689372820809 127.97354642900183 C 0.0 **** -0.24
19902 H 232.9783086605974 132.77741122510398 128.01464995299483 H 0.0 **** 0.06
19903 H 233.3225567243383 134.25623758621845 128.94302902741788 H 0.0 **** 0.06
19904 H 232.9271119805893 134.36445873258435 127.21049576557158 H 0.0 **** 0.06
19905 H 234.48618133297828 133.67749725663026 127.7261764210163 H 0.0 **** 0.06
19906 C 29.298448157272162 92.39624999696443 180.93546037275152 C 0.0 **** -0.24
19907 H 29.90792307079637 92.20712717157124 181.81945497755055 H 0.0 **** 0.06
19908 H 28.587437273921125 91.58041854870308 180.80391895746973 H 0.0 **** 0.06
19909 H 29.94185108679575 92.46353212757958 180.05849324166553 H 0.0 **** 0.06
19910 H 28.756353171716583 93.33389706732302 181.0621985949355 H 0.0 **** 0.06
19911 C 97.52027834081079 46.65796040024222 244.831243312511 C 0.0 **** -0.24
19912 H 96.95593721578368 46.95535677525763 243.94721160321177 H 0.0 **** 0.06
19913 H 97.58771546706336 45.57034096493672 244.86892320910488 H 0.0 **** 0.06
19914 H 97.01356909787197 47.022560107624685 245.7243157381297 H 0.0 **** 0.06
19915 H 98.52219644170756 47.083368195327836 244.78276768083384 H 0.0 **** 0.06
19916 C 178.11343310233735 140.1128873076669 194.93051435134055 C 0.0 **** -0.24
19917 H 177.25960638054943 139.48635428124823 195.18820188246468 H 0.0 **** 0.06
19918 H 177.99860090139697 141.09131673828995 195.39558420769885 H 0.0 **** 0.06
19919 H 178.16495500531124 140.22784068057595 193.84743134770912 H 0.0 **** 0.06
19920 H 179.02976339281042 139.64327480463078 195.2891917440655 H 0.0 **** 0.06
19921 C 161.36896230940798 131.30565351491174 76.85401680826658 C 0.0 **** -0.24
19922 H 161.37739339289948 132.30507768610113 76.42056808094134 H 0.0 **** 0.06
19923 H 162.38171598572097 131.02864867207467 77.1475604707093 H 0.0 **** 0.06
19924 H 160.9961893078447 130.59408421784093 76.11763308461445 H 0.0 **** 0.06
19925 H 160.7205505511668 131.29480348363057 77.73030559680117 H 0.0 **** 0.06
19926 C 86.92077143679751 53.604989078255414 119.79854423736901 C 0.0 **** -0.24
19927 H 85.85465347001463 53.43033173212868 119.94175337365817 H 0.0 **** 0.06
19928 H 87.10970843182386 54.676730052962256 119.75191111074119 H 0.0 **** 0.06
19929 H 87.24359444385499 53.13767252016315 118.86765588749819 H 0.0 **** 0.06
19930 H 87.4741570522065 53.17311022774963 120.63208522782739 H 0.0 **** 0.06
19931 C 199.42271192795195 29.708321210737765 25.161875016724224 C 0.0 **** -0.24
19932 H 199.5695498299105 28.658527150134177 24.909580304277114 H 0.0 **** 0.06
19933 H 200.23411204828687 30.30092290405362 24.738764332150396 H 0.0 **** 0.06
19934 H 199.41492801682244 29.823815066858756 26.246174863974005 H 0.0 **** 0.06
19935 H 198.4720083292105 30.050854818679227 24.753470851170817 H 0.0 **** 0.06
19936 C 78.76540398264865 164.94628413755038 34.911684407225124 C 0.0 **** -0.24
19937 H 78.42402357197076 164.1433919783031 34.258904844861746 H 0.0 **** 0.06
19938 H 77.99114919057823 165.71199427637026 34.98033637456709 H 0.0 **** 0.06
19939 H 79.6758469998338 165.385024020911 34.50219032201366 H 0.0 **** 0.06
19940 H 78.96936359776203 164.54586205832965 35.90486928697962 H 0.0 **** 0.06
19941 C 74.03660058701823 201.65633210210476 69.51325689175675 C 0.0 **** -0.24
19942 H 74.68823833133763 201.13597264469945 68.81127693827509 H 0.0 **** 0.06
19943 H 72.99503715557768 201.4568386615036 69.25795203214295 H 0.0 **** 0.06
19944 H 74.22587085799492 202.72827284918222 69.45782795642089 H 0.0 **** 0.06
19945 H 74.23764503085096 201.30352174933176 70.52481883059738 H 0.0 **** 0.06
19946 C 162.55509117082016 155.19221055769722 119.07338408665674 C 0.0 **** -0.24
19947 H 163.32326113976364 154.7219655698121 119.68712435516701 H 0.0 **** 0.06
19948 H 161.57289177681452 154.83943920621113 119.38954433550558 H 0.0 **** 0.06
19949 H 162.71651062820206 154.93294469648967 118.02755258460496 H 0.0 **** 0.06
19950 H 162.60777268430525 156.2745404242985 119.19231385389995 H 0.0 **** 0.06
19951 C 229.55212085791828 237.8943008710975 202.29924897026194 C 0.0 **** -0.24
19952 H 229.92774428865008 236.88436165436187 202.13520512048206 H 0.0 **** 0.06
19953 H 228.99884321641622 237.92770520215487 203.23772037086596 H 0.0 **** 0.06
19954 H 228.8929509759038 238.17442789997736 201.4778523065459 H 0.0 **** 0.06
19955 H 230.38966282822508 238.59004382143624 202.34601177997706 H 0.0 **** 0.06
19956 C 43.378162544960134 27.100552175469986 72.32467860942029 C 0.0 **** -0.24
19957 H 44.09559343141129 27.74359329475716 71.813548856453 H 0.0 **** 0.06
19958 H 43.57306813032554 26.060023393952733 72.06319773820863 H 0.0 **** 0.06
19959 H 42.36663653359679 27.36939647710811 72.01833329671138 H 0.0 **** 0.06
19960 H 43.47772914600725 27.230194303797262 73.4016697724474 H 0.0 **** 0.06
19961 C 32.66416746502094 82.82979562733553 114.67495009802101 C 0.0 **** -0.24
19962 H 32.467170668632804 81.82387263276496 114.30493286141984 H 0.0 **** 0.06
19963 H 32.9146777921334 83.48201448895583 113.8389760010239 H 0.0 **** 0.06
19964 H 33.49709675880396 82.80122842207854 115.3768548402526 H 0.0 **** 0.06
19965 H 31.77617194104002 83.21034209885065 115.17982028218051 H 0.0 **** 0.06
19966 C 77.01077136209301 203.33144505133032 90.98224098057548 C 0.0 **** -0.24
19967 H 76.01181902259981 202.93538434981963 90.79429489101503 H 0.0 **** 0.06
19968 H 77.40592519387064 202.8976169001548 91.90058032396561 H 0.0 **** 0.06
19969 H 76.95825498004959 204.41557113132663 91.08367689142929 H 0.0 **** 0.06
19970 H 77.664290633218 203.0760020579134 90.14823678005914 H 0.0 **** 0.06
19971 C 198.33036028637684 28.052093476123304 61.555633801585486 C 0.0 **** -0.24
19972 H 197.4830178863123 27.494767549618558 61.15647438973659 H 0.0 **** 0.06
19973 H 198.90911924017604 28.471231035501575 60.73290642080693 H 0.0 **** 0.06
19974 H 198.9613974456791 27.38333624264098 62.14165295033325 H 0.0 **** 0.06
19975 H 197.96666606800738 28.858486069763018 62.191895589203824 H 0.0 **** 0.06
19976 C 175.98150278026822 224.9063905631945 186.6791472762277 C 0.0 **** -0.24
19977 H 177.04701226802254 224.9689013682929 186.45978799936438 H 0.0 **** 0.06
19978 H 175.49547183494562 224.26968982839952 185.93914479352165 H 0.0 **** 0.06
19979 H 175.5438456063925 225.90381914184508 186.64338425553854 H 0.0 **** 0.06
19980 H 175.83919889540653 224.4829991188086 187.67295150696205 H 0.0 **** 0.06
19981 C 156.241988623122 105.92661482487009 174.99397760527916 C 0.0 **** -0.24
19982 H 156.8276195146077 105.34360244170432 174.28308127640267 H 0.0 **** 0.06
19983 H 156.66718745822874 106.9264717728584 175.07984728027927 H 0.0 **** 0.06
19984 H 156.26161003051362 105.43769721249456 175.96842880789725 H 0.0 **** 0.06
19985 H 155.211993693783 105.99737523029299 174.64429063048036 H 0.0 **** 0.06
19986 C 90.3159675027477 133.59945523826465 146.3097209204003 C 0.0 **** -0.24
19987 H 89.4191691181708 133.41445520117364 146.90065679561155 H 0.0 **** 0.06
19988 H 91.0295782459674 132.79096105242766 146.47075642834935 H 0.0 **** 0.06
19989 H 90.76226455849235 134.54568003492682 146.61368494741708 H 0.0 **** 0.06
19990 H 90.05092643710697 133.64534984260519 145.2531701676082 H 0.0 **** 0.06
19991 C 128.0723998553257 91.96288603274886 101.29219031880615 C 0.0 **** -0.24
19992 H 127.54972292230835 92.2333081449845 102.20981621013237 H 0.0 **** 0.06
19993 H 129.13302494882092 91.82671054086228 101.50640102748383 H 0.0 **** 0.06
19994 H 127.94917212747615 92.7564105615987 100.55604202845757 H 0.0 **** 0.06
19995 H 127.659090422872 91.03371061535285 100.89915478438624 H 0.0 **** 0.06
19996 C 68.44796518453816 237.86731849383676 13.082983663006758 C 0.0 **** -0.24
19997 H 68.04055568748859 237.9430055152226 14.0910474227083 H 0.0 **** 0.06
19998 H 69.33000650742684 237.22642258403414 13.095637294040984 H 0.0 **** 0.06
19999 H 68.72475243490612 238.86034559850685 12.728488868707771 H 0.0 **** 0.06
20000 H 67.69756750302145 237.4400047986288 12.418929538342127 H 0.0 **** 0.06
20001 C 153.60109510389768 133.98044389877327 46.51709155789993 C 0.0 **** -0.24
20002 H 153.3917981432765 133.5114736569611 45.55540851853641 H 0.0 **** 0.06
20003 H 153.3080835299468 133.30599067989516 47.32088110103034 H 0.0 **** 0.06
20004 H 153.03592335285828 134.90924747705486 46.597902317979106 H 0.0 **** 0.06
20005 H 154.66686455045468 134.19597582032867 46.59188490506065 H 0.0 **** 0.06
20006 C 171.74068723429352 183.10810010784382 122.19709756381738 C 0.0 **** -0.24
20007 H 172.81300584287098 183.03443906789926 122.01366247961548 H 0.0 **** 0.06
20008 H 171.4697044321094 184.15236112827705 122.35503685129703 H 0.0 **** 0.06
20009 H 171.48370579691837 182.52680733378577 123.08353923503537 H 0.0 **** 0.06
20010 H 171.19722141074215 182.71770128421088 121.33628908769202 H 0.0 **** 0.06
20011 C 23.471889210048033 18.960847345469546 246.47535116225288 C 0.0 **** -0.24
20012 H 23.599966308075608 19.772901675429097 245.76016126879063 H 0.0 **** 0.06
20013 H 24.449301654075867 18.586350718146747 246.77828804040342 H 0.0 **** 0.06
20014 H 22.90048178186052 18.156327627052377 246.0128123651458 H 0.0 **** 0.06
20015 H 22.937187631016712 19.329067380515397 247.3503264683078 H 0.0 **** 0.06
20016 C 37.71210038783184 20.572745667554216 229.62715390826247 C 0.0 **** -0.24
20017 H 37.04403732530635 19.83234125135033 229.18507967030385 H 0.0 **** 0.06
20018 H 38.01477048245634 20.241111510168082 230.62069866042796 H 0.0 **** 0.06
20019 H 37.19462600486527 21.528698395789263 229.70375813449323 H 0.0 **** 0.06
20020 H 38.594214946321785 20.68700461083091 228.99661019439293 H 0.0 **** 0.06
20021 C 124.99226192392845 121.36869505981173 238.41198208138024 C 0.0 **** -0.24
20022 H 124.47434143214912 121.50861159280348 237.46343409009233 H 0.0 **** 0.06
20023 H 126.05240931519279 121.19746996529665 238.22517189667252 H 0.0 **** 0.06
20024 H 124.57054657582555 120.50916636105606 238.9322927030086 H 0.0 **** 0.06
20025 H 124.87044212672288 122.26101067793931 239.02735055612266 H 0.0 **** 0.06
20026 C 194.864955157859 175.70320529152912 90.52728530253978 C 0.0 **** -0.24
20027 H 195.793490402219 175.2265083906687 90.84194533641673 H 0.0 **** 0.06
20028 H 194.04524741405433 175.35105524626877 91.15336047970015 H 0.0 **** 0.06
20029 H 194.66318407929944 175.45082185357063 89.48615629821438 H 0.0 **** 0.06
20030 H 194.9606420690031 176.78451765997255 90.62646769602375 H 0.0 **** 0.06
20031 C 232.58293945627707 100.68077201990457 107.78301992159061 C 0.0 **** -0.24
20032 H 233.59514967487038 100.68658699444094 108.18735793415263 H 0.0 **** 0.06
20033 H 232.6080914988529 100.34407409056053 106.74649329340448 H 0.0 **** 0.06
20034 H 232.16721232489556 101.68718259328321 107.82934784511542 H 0.0 **** 0.06
20035 H 231.96272321776962 100.00345743572504 108.3697714334663 H 0.0 **** 0.06
20036 C 93.57541626630663 181.84658357313518 236.59060228785546 C 0.0 **** -0.24
20037 H 93.34374087699828 181.29125839717065 237.49839136736531 H 0.0 **** 0.06
20038 H 92.78828705096825 181.683465481852 235.85391805202875 H 0.0 **** 0.06
20039 H 94.528269942722 181.50257025443614 236.1864286966332 H 0.0 **** 0.06
20040 H 93.64217731640571 182.90922218152355 236.8225262254257 H 0.0 **** 0.06
20041 C 51.81497426421649 102.53654176822909 212.28367649873724 C 0.0 **** -0.24
20042 H 51.2879017747766 102.17663682816752 211.3994459831247 H 0.0 **** 0.06
20043 H 52.235816596120486 103.52081239297004 212.07924403071465 H 0.0 **** 0.06
20044 H 52.617444822129045 101.84329118769818 212.53502725311824 H 0.0 **** 0.06
20045 H 51.11890297799172 102.60405185788039 213.11896848871316 H 0.0 **** 0.06
20046 C 95.21491951865139 34.57993862091004 152.79420849550604 C 0.0 **** -0.24
20047 H 95.53770796757726 34.691765012718605 151.75803666310134 H 0.0 **** 0.06
20048 H 94.17667592496184 34.24921507773345 152.81651868393342 H 0.0 **** 0.06
20049 H 95.30347230135266 35.53754665848504 153.30635184534327 H 0.0 **** 0.06
20050 H 95.84292519536936 33.84175889427013 153.2919896927686 H 0.0 **** 0.06
20051 C 153.66149128291156 139.8462521574574 79.96833567793814 C 0.0 **** -0.24
20052 H 152.899203520029 140.1967151487127 79.27275849042405 H 0.0 **** 0.06
20053 H 153.2223380953978 139.72812221928297 80.95959415952879 H 0.0 **** 0.06
20054 H 154.47239099577402 140.57307206709288 80.01469344367484 H 0.0 **** 0.06
20055 H 154.05101820843942 138.88790277327783 79.6268671022745 H 0.0 **** 0.06
20056 C 109.99408549921384 61.59793789720507 160.9286472359583 C 0.0 **** -0.24
20057 H 111.0312288369029 61.534048339626565 161.25942268981692 H 0.0 **** 0.06
20058 H 109.91587668089721 61.22611711604992 159.9066138390246 H 0.0 **** 0.06
20059 H 109.66547425885713 62.63626426183558 160.96307940682505 H 0.0 **** 0.06
20060 H 109.36523032477692 60.99527418013855 161.58378705348568 H 0.0 **** 0.06
20061 C 57.691816593359164 40.68460021505959 31.545060701662663 C 0.0 **** -0.24
20062 H 57.079871514059874 40.55469707446349 30.6525871946711 H 0.0 **** 0.06
20063 H 57.616782532060824 41.71563602209014 31.890183317736756 H 0.0 **** 0.06
20064 H 58.73159394158483 40.45607607154355 31.30840406577667 H 0.0 **** 0.06
20065 H 57.34079061813287 40.01221129592787 32.32772248882608 H 0.0 **** 0.06
20066 C 51.993545088034836 233.81912179484868 89.75903460183437 C 0.0 **** -0.24
20067 H 52.565250752579885 234.589746672019 90.27525499276791 H 0.0 **** 0.06
20068 H 51.566989220614204 234.23405388522264 88.84554019782715 H 0.0 **** 0.06
20069 H 51.19145874870023 233.46552455820444 90.40752752814151 H 0.0 **** 0.06
20070 H 52.65046345069217 232.9858258107221 89.50735296158231 H 0.0 **** 0.06
20071 C 130.78382099613768 242.75014616410698 51.14906131986456 C 0.0 **** -0.24
20072 H 131.30585096979567 243.42853774205642 50.47412047482075 H 0.0 **** 0.06
20073 H 131.1759561127322 242.87055657566486 52.159258804840164 H 0.0 **** 0.06
20074 H 130.9359387575979 241.72255704248454 50.81987999237239 H 0.0 **** 0.06
20075 H 129.71824403736338 242.9799860926537 51.14235882777891 H 0.0 **** 0.06
20076 C 112.49106812910182 138.1666482168944 140.0467874960566 C 0.0 **** -0.24
20077 H 112.95242261015417 139.1367097864326 140.23109474111573 H 0.0 **** 0.06
20078 H 111.93613426607047 137.85482326009466 140.93204179874152 H 0.0 **** 0.06
20079 H 113.26472998470487 137.43292688654813 139.8248192712796 H 0.0 **** 0.06
20080 H 111.80960968767425 138.24389340948082 139.19910763326638 H 0.0 **** 0.06
20081 C 105.36220209416405 102.90449118200121 169.6294588168288 C 0.0 **** -0.24
20082 H 104.7734391143658 102.37714589671342 170.37972188279412 H 0.0 **** 0.06
20083 H 105.55518536120496 102.24044557544363 168.78665607351982 H 0.0 **** 0.06
20084 H 106.30928728154473 103.2213552435552 170.06616510625904 H 0.0 **** 0.06
20085 H 104.81019956603606 103.77903865603727 169.28370673337395 H 0.0 **** 0.06
20086 C 166.233737815634 51.54597710176235 17.17257954090708 C 0.0 **** -0.24
20087 H 167.12634839432337 51.06058216218808 16.778866867269215 H 0.0 **** 0.06
20088 H 165.56672488071956 51.80289219193719 16.349633643154334 H 0.0 **** 0.06
20089 H 166.51877780551638 52.45296948628281 17.706085484291066 H 0.0 **** 0.06
20090 H 165.72245265349036 50.867308680543545 17.856478101967994 H 0.0 **** 0.06
20091 C 121.12159026020575 127.02234410052856 178.10274242675308 C 0.0 **** -0.24
20092 H 120.13356097199775 127.46326831249206 178.23223963529222 H 0.0 **** 0.06
20093 H 121.02216151691528 126.03859038238627 177.64401035243833 H 0.0 **** 0.06
20094 H 121.6055948357986 126.92424090129032 179.07401370393632 H 0.0 **** 0.06
20095 H 121.72357123095611 127.66422142411238 177.45931334428798 H 0.0 **** 0.06
20096 C 64.78551995420324 75.57638491686257 134.7527838553559 C 0.0 **** -0.24
20097 H 63.86285912951112 76.04791983426617 134.41444025261495 H 0.0 **** 0.06
20098 H 64.61154295969914 74.51252113584715 134.9135987435179 H 0.0 **** 0.06
20099 H 65.10885400567886 76.03852533642385 135.68500640583184 H 0.0 **** 0.06
20100 H 65.55838555955211 75.70800470203307 133.99480986657764 H 0.0 **** 0.06
20101 C 49.864771633810506 54.68752812539225 13.75247330350075 C 0.0 **** -0.24
20102 H 49.651403422367565 53.618297224218765 13.759947427031733 H 0.0 **** 0.06
20103 H 48.944123298374166 55.24004410593403 13.561978387527432 H 0.0 **** 0.06
20104 H 50.59012091068266 54.90729499399646 12.969391880781046 H 0.0 **** 0.06
20105 H 50.27261541184011 54.98241528658497 14.719612171138493 H 0.0 **** 0.06
20106 C 120.75882605142559 143.15420848131717 27.63077390032916 C 0.0 **** -0.24
20107 H 119.88678816832328 143.06806227538993 28.278747917691817 H 0.0 **** 0.06
20108 H 121.33960263764038 142.23279352701437 27.680075159223634 H 0.0 **** 0.06
20109 H 121.37504426658325 143.98985118231323 27.960617718142913 H 0.0 **** 0.06
20110 H 120.43416188180527 143.32523955153493 26.604716342143888 H 0.0 **** 0.06
20111 C 132.61578561604523 160.99360790144343 175.75866215058795 C 0.0 **** -0.24
20112 H 132.2983878832017 161.1832932256624 174.7330775707852 H 0.0 **** 0.06
20113 H 131.74470657181357 160.75018811491267 176.36837412489953 H 0.0 **** 0.06
20114 H 133.10114855228113 161.88450141689978 176.15824711204291 H 0.0 **** 0.06
20115 H 133.31629769750967 160.1589610146671 175.77399062591158 H 0.0 **** 0.06
20116 C 202.39059810659654 81.81160774769941 239.76547331300424 C 0.0 **** -0.24
20117 H 201.35644209484872 82.15327538681646 239.7433345868351 H 0.0 **** 0.06
20118 H 203.05409017882187 82.66873083075012 239.8782512131502 H 0.0 **** 0.06
20119 H 202.6215492013715 81.29191367271554 238.83564309820767 H 0.0 **** 0.06
20120 H 202.53015310433688 81.13070120484437 240.60596796828713 H 0.0 **** 0.06
20121 C 117.72360260749846 6.5588030441125795 53.93180039767739 C 0.0 **** -0.24
20122 H 118.72333017137845 6.941531082100056 53.725062346995344 H 0.0 **** 0.06
20123 H 117.33154912284598 7.034879730872689 54.83106433645486 H 0.0 **** 0.06
20124 H 117.77071774933378 5.480196036900338 54.082527497716484 H 0.0 **** 0.06
20125 H 117.06873786911362 6.780331758082383 53.088664715146024 H 0.0 **** 0.06
20126 C 225.14282389069325 193.47299524697257 214.24691081085072 C 0.0 **** -0.24
20127 H 224.83210100994546 192.80454346805465 215.0504306230733 H 0.0 **** 0.06
20128 H 226.01235323166554 193.05223847717042 213.7409670940334 H 0.0 **** 0.06
20129 H 225.39931338535655 194.4465805728944 214.6636437153901 H 0.0 **** 0.06
20130 H 224.32689878408817 193.5857901636846 213.53386867718774 H 0.0 **** 0.06
20131 C 111.65679334013657 88.26020145164941 218.95780638567854 C 0.0 **** -0.24
20132 H 111.19136476773244 87.43695100077008 218.41471935774098 H 0.0 **** 0.06
20133 H 112.09622009641157 88.96157342800319 218.24900525768928 H 0.0 **** 0.06
20134 H 112.43486390132341 87.86881085581368 219.61315451603386 H 0.0 **** 0.06
20135 H 110.90238742306758 88.77195605001356 219.5558444429367 H 0.0 **** 0.06
20136 C 200.52492222515127 14.941358329765038 231.3681279139082 C 0.0 **** -0.24
20137 H 200.10157364100064 14.699148144101642 230.39292497134699 H 0.0 **** 0.06
20138 H 200.39330865482833 16.00487092086422 231.56765837930175 H 0.0 **** 0.06
20139 H 201.58777375943654 14.698827730518403 231.37188255222298 H 0.0 **** 0.06
20140 H 200.01718011857383 14.360946572085524 232.13891045163214 H 0.0 **** 0.06
20141 C 150.95882358138573 19.919669958142435 38.08656600547542 C 0.0 **** -0.24
20142 H 150.2898330852036 19.272196880728103 37.52100090330711 H 0.0 **** 0.06
20143 H 151.77369643981223 20.25181150854209 37.44232707729245 H 0.0 **** 0.06
20144 H 151.36695401589117 19.368380968752703 38.9336590152528 H 0.0 **** 0.06
20145 H 150.4063887578538 20.78564362015136 38.449579696046754 H 0.0 **** 0.06
20146 C 59.81330789957559 198.6268081061502 61.18264969328433 C 0.0 **** -0.24
20147 H 58.897418864475355 199.18458816260141 61.37715740562666 H 0.0 **** 0.06
20148 H 60.59575429382025 198.96280807299672 61.864232591224294 H 0.0 **** 0.06
20149 H 60.129722454030485 198.79501183415096 60.153349007182015 H 0.0 **** 0.06
20150 H 59.62984324734177 197.5630855009627 61.336716293908665 H 0.0 **** 0.06
20151 C 32.00370456297139 204.00818032877453 34.843555542789375 C 0.0 **** -0.24
20152 H 32.2244921639127 205.04511313658168 34.59073791210989 H 0.0 **** 0.06
20153 H 32.71739426131147 203.65727243215127 35.589582513352056 H 0.0 **** 0.06
20154 H 32.080276990385755 203.391415960109 33.94832878829315 H 0.0 **** 0.06
20155 H 30.99368746898483 203.9403341078442 35.24696342956004 H 0.0 **** 0.06
20156 C 112.78630921855736 165.17778698603428 127.72402268810401 C 0.0 **** -0.24
20157 H 111.8235200097254 164.8446704502435 127.33719213504062 H 0.0 **** 0.06
20158 H 112.86759835377333 164.90739245949575 128.77633986259676 H 0.0 **** 0.06
20159 H 112.8657522389183 166.2599145920997 127.61827192651103 H 0.0 **** 0.06
20160 H 113.58851385557804 164.6979884863145 127.16172142830169 H 0.0 **** 0.06
20161 C 96.8382023214059 9.148489557276804 71.57181800618582 C 0.0 **** -0.24
20162 H 97.82658244575342 9.456807825705624 71.22931230473509 H 0.0 **** 0.06
20163 H 96.12138687529102 9.946032884239784 71.37514357588006 H 0.0 **** 0.06
20164 H 96.87222324169377 8.9451166344261 72.6417355693203 H 0.0 **** 0.06
20165 H 96.5346646039333 8.246942138653395 71.03886239500196 H 0.0 **** 0.06
20166 C 35.67800134888104 117.95818409127133 7.130968408533349 C 0.0 **** -0.24
20167 H 36.53291046699398 117.72367209428165 6.4956526558448076 H 0.0 **** 0.06
20168 H 36.03080151858704 118.27284811937588 8.112882434397292 H 0.0 **** 0.06
20169 H 35.050488547081926 117.0722924057838 7.235511164750605 H 0.0 **** 0.06
20170 H 35.098078066999804 118.76194831095913 6.677373175669288 H 0.0 **** 0.06
20171 C 146.25531348011452 144.4478320076683 38.67392265188114 C 0.0 **** -0.24
20172 H 145.3801380881855 145.08049950190482 38.52049038633095 H 0.0 **** 0.06
20173 H 147.02507913846424 144.71150026563174 37.94824885775968 H 0.0 **** 0.06
20174 H 145.97472465631392 143.40248870825025 38.54452068708392 H 0.0 **** 0.06
20175 H 146.6398000558449 144.59870071767665 39.68293071933323 H 0.0 **** 0.06
20176 C 74.13250735170718 86.42917353356293 87.18424890811463 C 0.0 **** -0.24
20177 H 74.92521521725902 86.02892405759059 87.81495418722938 H 0.0 **** 0.06
20178 H 73.45624937732029 87.03329586650051 87.79034786290075 H 0.0 **** 0.06
20179 H 73.578421350468 85.60705243615953 86.73213590710833 H 0.0 **** 0.06
20180 H 74.56926799758995 87.04748974101346 86.40066626099005 H 0.0 **** 0.06
20181 C 12.074122069735694 47.77370388819344 232.7137165648147 C 0.0 **** -0.24
20182 H 12.807227837815987 48.062373462418805 231.96066518780182 H 0.0 **** 0.06
20183 H 11.51528475022721 46.90616029794499 232.36273859038698 H 0.0 **** 0.06
20184 H 11.38804761644596 48.6022633176601 232.88793390080883 H 0.0 **** 0.06
20185 H 12.587181269580554 47.52535670507734 233.6422484668867 H 0.0 **** 0.06
20186 C 139.84772600693518 3.939025707731304 117.16179123841397 C 0.0 **** -0.24
20187 H 140.9249440007859 3.909590929643713 117.32013434508329 H 0.0 **** 0.06
20188 H 139.6138535193526 3.5261061493218904 116.1795862269017 H 0.0 **** 0.06
20189 H 139.50067914085264 4.970357938616132 117.21496886317678 H 0.0 **** 0.06
20190 H 139.35057596038988 3.3484301533023597 117.93166414795456 H 0.0 **** 0.06
20191 C 132.41715677544795 59.24166994254372 100.02616205300785 C 0.0 **** -0.24
20192 H 133.48697992202145 59.034305417660335 100.00118289473988 H 0.0 **** 0.06
20193 H 132.18695765634445 59.85611169615038 100.89625070423745 H 0.0 **** 0.06
20194 H 131.86678348135123 58.30241638328883 100.08899967641563 H 0.0 **** 0.06
20195 H 132.12854474993537 59.77161290059885 99.11899221269906 H 0.0 **** 0.06
20196 C 185.74907856636233 196.37370076582067 2.8041945510173605 C 0.0 **** -0.24
20197 H 185.58473560489318 196.407588994437 1.7280163452172985 H 0.0 **** 0.06
20198 H 184.78957347428315 196.4201616132059 3.3202022509919686 H 0.0 **** 0.06
20199 H 186.36520211586077 197.221126961429 3.1046894480805634 H 0.0 **** 0.06
20200 H 186.25693275073613 195.44462431687242 3.065383487073376 H 0.0 **** 0.06
20201 C 129.83001531811706 77.18081916157414 74.72120335916583 C 0.0 **** -0.24
20202 H 130.56463051553166 76.43538775601823 74.41956933763896 H 0.0 **** 0.06
20203 H 130.12384627772417 78.15744384485743 74.33434656309163 H 0.0 **** 0.06
20204 H 129.7792335654858 77.2212995513319 75.80991825962278 H 0.0 **** 0.06
20205 H 128.8521833175293 76.91072761773725 74.32166398463391 H 0.0 **** 0.06
20206 C 212.2988267669371 76.25568139462456 147.77794691456236 C 0.0 **** -0.24
20207 H 213.00135937509813 75.56246206601708 147.31704296499151 H 0.0 **** 0.06
20208 H 212.15994635642184 77.11915743875221 147.12598147091126 H 0.0 **** 0.06
20209 H 212.69149587798026 76.58562007505515 148.7397478323777 H 0.0 **** 0.06
20210 H 211.34202419106023 75.75677380761834 147.92868380364266 H 0.0 **** 0.06
20211 C 115.94708309333012 116.78364937761563 171.23843826922823 C 0.0 **** -0.24
20212 H 115.84193478500012 116.00524628831892 170.48285304525828 H 0.0 **** 0.06
20213 H 117.00070364192061 116.90526741639434 171.49129073309018 H 0.0 **** 0.06
20214 H 115.3898267838837 116.49999508044772 172.13178659083147 H 0.0 **** 0.06
20215 H 115.5554617850402 117.72371336607995 170.8486562449514 H 0.0 **** 0.06
20216 C 105.94062190144749 122.15804725175923 39.645653788722115 C 0.0 **** -0.24
20217 H 106.72227729929753 122.77689905974853 40.08607386791735 H 0.0 **** 0.06
20218 H 106.3026729709189 121.72822883029966 38.71053949743742 H 0.0 **** 0.06
20219 H 105.06121752522208 122.77015526253558 39.44874446287909 H 0.0 **** 0.06
20220 H 105.67955185737878 121.35694156693876 40.33651388617642 H 0.0 **** 0.06
20221 C 94.50907920692788 30.984703053958384 228.40435106074486 C 0.0 **** -0.24
20222 H 94.7340803621191 31.005179909274858 229.47066515485636 H 0.0 **** 0.06
20223 H 94.87289177500219 30.051049094233264 227.97463921091781 H 0.0 **** 0.06
20224 H 94.99960254110547 31.825146999787293 227.91396101683716 H 0.0 **** 0.06
20225 H 93.43154248054478 31.056416204190327 228.25944975680576 H 0.0 **** 0.06
20226 C 100.60370278723684 48.153970817918065 122.60211761433953 C 0.0 **** -0.24
20227 H 101.22024102069636 47.61780168462798 123.32366167911437 H 0.0 **** 0.06
20228 H 100.92809559329368 49.19273696233411 122.54872506761217 H 0.0 **** 0.06
20229 H 99.56066791010832 48.11324288109047 122.91527100304711 H 0.0 **** 0.06
20230 H 100.70685943574878 47.68955199982558 121.6219918951995 H 0.0 **** 0.06
20231 C 64.12682231233228 124.99843347095944 74.94797895920627 C 0.0 **** -0.24
20232 H 64.75068560112493 124.94759661993322 75.84011783663695 H 0.0 **** 0.06
20233 H 63.34183149287068 125.74056250591164 75.09614267217691 H 0.0 **** 0.06
20234 H 63.674667556858964 124.02305625726606 74.7659543858795 H 0.0 **** 0.06
20235 H 64.73886283047636 125.28136686444884 74.09217719610902 H 0.0 **** 0.06
20236 C 90.37051166084453 40.4590054004443 100.8126094204467 C 0.0 **** -0.24
20237 H 89.67154876300648 39.75856961192929 101.27014864996943 H 0.0 **** 0.06
20238 H 90.6671082740863 41.208252888476025 101.54627093290142 H 0.0 **** 0.06
20239 H 89.8898780227089 40.949120072607954 99.96580100938024 H 0.0 **** 0.06
20240 H 91.25199404440315 39.91908481408676 100.46690993203939 H 0.0 **** 0.06
20241 C 35.18588518558913 163.0817033352934 122.907880129843 C 0.0 **** -0.24
20242 H 34.198493850434716 163.4573714096686 123.17471605339801 H 0.0 **** 0.06
20243 H 35.148118187096216 161.9968409601376 122.81024894769749 H 0.0 **** 0.06
20244 H 35.900349519275096 163.35327745236708 123.68439592168485 H 0.0 **** 0.06
20245 H 35.49621424558963 163.5214277112072 121.95908724727789 H 0.0 **** 0.06
20246 C 191.92289255255236 149.35909981994277 88.37099170511692 C 0.0 **** -0.24
20247 H 192.64046669492097 149.20865401221863 89.17669758484092 H 0.0 **** 0.06
20248 H 191.02394764196038 149.829704360753 88.76913110630412 H 0.0 **** 0.06
20249 H 191.66524979157913 148.39726164771577 87.92881968343227 H 0.0 **** 0.06
20250 H 192.36215577023825 150.00270247562779 87.60882963843002 H 0.0 **** 0.06
20251 C 236.18981696269117 195.14131642077473 28.026319582565264 C 0.0 **** -0.24
20252 H 236.4044625932859 195.4055384343692 29.061694175526355 H 0.0 **** 0.06
20253 H 235.15669032868155 195.39844210525058 27.792342424324232 H 0.0 **** 0.06
20254 H 236.33850286045552 194.07076300931817 27.886847500703567 H 0.0 **** 0.06
20255 H 236.85911544171347 195.69138690301898 27.36446870488254 H 0.0 **** 0.06
20256 C 188.75731953264903 139.73429756595075 210.78570258913112 C 0.0 **** -0.24
20257 H 189.25441809681348 140.22048931372262 209.94603826627537 H 0.0 **** 0.06
20258 H 189.45210785096205 139.6569277059127 211.62257693813558 H 0.0 **** 0.06
20259 H 188.43330342764568 138.73760276600856 210.48839702978492 H 0.0 **** 0.06
20260 H 187.89079617903514 140.32419545618788 211.08608790043044 H 0.0 **** 0.06
20261 C 88.43881092023378 63.02967527715134 231.95569256906714 C 0.0 **** -0.24
20262 H 89.11118284338642 63.60251439618759 231.31742859161685 H 0.0 **** 0.06
20263 H 88.78221295730964 63.08736982021733 232.9895914858455 H 0.0 **** 0.06
20264 H 88.43103623699957 61.98875089485867 231.63325257722778 H 0.0 **** 0.06
20265 H 87.4321492987489 63.44032933828595 231.88427001486812 H 0.0 **** 0.06
20266 C 56.748900438996145 13.190055038814506 235.96713879500118 C 0.0 **** -0.24
20267 H 55.915704736924596 12.727956112657495 235.4371934409133 H 0.0 **** 0.06
20268 H 57.62475408672765 12.545568417206312 235.89864104072404 H 0.0 **** 0.06
20269 H 56.479569589568484 13.328624413063977 237.01491549137955 H 0.0 **** 0.06
20270 H 56.9732469250813 14.158378927806353 235.51850745365186 H 0.0 **** 0.06
20271 C 63.313932339081504 241.38306592951758 48.40312042935247 C 0.0 **** -0.24
20272 H 63.388313569161426 242.46558079319772 48.511053651838864 H 0.0 **** 0.06
20273 H 62.87319569660153 240.95813077846054 49.30461579411053 H 0.0 **** 0.06
20274 H 64.30978207171069 240.96522011306618 48.252888074861914 H 0.0 **** 0.06
20275 H 62.68647622986171 241.14590678844417 47.54438942684024 H 0.0 **** 0.06
20276 C 68.83720948222572 98.46328150543124 30.963603945002404 C 0.0 **** -0.24
20277 H 68.26624963749654 97.88018810117319 30.24083530328747 H 0.0 **** 0.06
20278 H 69.5126279204271 99.1353544016471 30.434759431776826 H 0.0 **** 0.06
20279 H 69.41606274590956 97.78992761796383 31.595629267875978 H 0.0 **** 0.06
20280 H 68.1537442007143 99.04487290068477 31.581697967202985 H 0.0 **** 0.06
20281 C 16.831057255035816 15.441294608618236 137.52184910271436 C 0.0 **** -0.24
20282 H 17.38151473641321 15.285007073747735 138.45019459223374 H 0.0 **** 0.06
20283 H 17.510858163284297 15.344004305826445 136.67540602088783 H 0.0 **** 0.06
20284 H 16.393428051337622 16.43915997230056 137.52356865468377 H 0.0 **** 0.06
20285 H 16.039182420489254 14.697081311750608 137.43942107081432 H 0.0 **** 0.06
20286 C 223.87447719925194 34.69794906671241 60.981020396781844 C 0.0 **** -0.24
20287 H 224.9045294120574 34.8247442673308 61.31376802210252 H 0.0 **** 0.06
20288 H 223.2197154743846 35.338991160768146 61.5716206759879 H 0.0 **** 0.06
20289 H 223.57651915889443 33.656509657185495 61.10929178225524 H 0.0 **** 0.06
20290 H 223.79742416357385 34.97021378334523 59.928336529775436 H 0.0 **** 0.06
20291 C 105.4180157738395 163.88305703176087 38.18905953277536 C 0.0 **** -0.24
20292 H 106.09593970358463 164.5346256574365 37.637121087878455 H 0.0 **** 0.06
20293 H 105.92098169944956 163.50785583344808 39.081065093512706 H 0.0 **** 0.06
20294 H 105.12430412578078 163.0454117929333 37.556317490208656 H 0.0 **** 0.06
20295 H 104.53144523496377 164.4464867327941 38.481721847517065 H 0.0 **** 0.06
20296 C 236.769065714595 221.91965574473429 35.40617773405785 C 0.0 **** -0.24
20297 H 237.2205653386825 222.37484884428918 34.524517990569365 H 0.0 **** 0.06
20298 H 237.22632098749648 222.3353283726638 36.30401928450439 H 0.0 **** 0.06
20299 H 236.9279229274952 220.84252561349552 35.38094649030495 H 0.0 **** 0.06
20300 H 235.69942543846125 222.12880063105902 35.41396641783521 H 0.0 **** 0.06
20301 C 165.21245649800483 184.45336399605384 191.29301372146975 C 0.0 **** -0.24
20302 H 164.82006858063679 185.36846481797005 191.73725327752237 H 0.0 **** 0.06
20303 H 165.6677951791005 183.83949871977083 192.0699440105107 H 0.0 **** 0.06
20304 H 165.96148598793218 184.70658441920153 190.5425786398823 H 0.0 **** 0.06
20305 H 164.39930621559844 183.90099741927247 190.82279425614752 H 0.0 **** 0.06
20306 C 21.2611935072579 167.1796231916484 56.75929942802571 C 0.0 **** -0.24
20307 H 22.326460054946978 167.3975386061023 56.69125817616572 H 0.0 **** 0.06
20308 H 21.121440864029097 166.1473597046228 57.08158791610816 H 0.0 **** 0.06
20309 H 20.798411294013277 167.32268441718338 55.783813057309146 H 0.0 **** 0.06
20310 H 20.798927583599692 167.85143882747448 57.48266070570213 H 0.0 **** 0.06
20311 C 25.6729763660598 233.5406114190681 87.66331937746008 C 0.0 **** -0.24
20312 H 25.009602692409487 234.39081004995393 87.50613724937082 H 0.0 **** 0.06
20313 H 26.68190194062167 233.80205114525205 87.34243616697563 H 0.0 **** 0.06
20314 H 25.3161348788404 232.68895813664318 87.08348024805619 H 0.0 **** 0.06
20315 H 25.684196245053954 233.2794864459152 88.72205798676652 H 0.0 **** 0.06
20316 C 189.00026540453015 151.96304551690838 169.80404966375326 C 0.0 **** -0.24
20317 H 189.0060573695474 150.87252153658193 169.79871278898267 H 0.0 **** 0.06
20318 H 187.9750308295077 152.32175511277626 169.71042239545883 H 0.0 **** 0.06
20319 H 189.59298314657903 152.33235499249597 168.9672314294572 H 0.0 **** 0.06
20320 H 189.42821247903888 152.32345592840426 170.73948656996612 H 0.0 **** 0.06
20321 C 57.805424371638736 148.3905986793518 60.826318842773645 C 0.0 **** -0.24
20322 H 58.75739130162398 148.8925306463364 60.99961868359583 H 0.0 **** 0.06
20323 H 57.8963244889371 147.72510639344918 59.96797465007654 H 0.0 **** 0.06
20324 H 57.032896709220694 149.13451734770427 60.629627199561725 H 0.0 **** 0.06
20325 H 57.53403223189585 147.81121131460407 61.709028965736024 H 0.0 **** 0.06
20326 C 103.29778667204405 131.86847697113026 159.98502638979585 C 0.0 **** -0.24
20327 H 102.36164185667889 131.31865522369864 159.88280354654336 H 0.0 **** 0.06
20328 H 103.68416504724368 131.7415423031369 160.99723828881307 H 0.0 **** 0.06
20329 H 103.11999769979184 132.92656843191943 159.7942802086308 H 0.0 **** 0.06
20330 H 104.0238338054198 131.48601796654324 159.26789583332942 H 0.0 **** 0.06
20331 C 196.32591968726666 59.635765715679184 2.496637168239914 C 0.0 **** -0.24
20332 H 196.80622986506108 59.2836135194008 1.5842082535430961 H 0.0 **** 0.06
20333 H 195.40556197896544 60.16127711326979 2.2432658554269835 H 0.0 **** 0.06
20334 H 196.99829788217292 60.31346635205239 3.0225325741061795 H 0.0 **** 0.06
20335 H 196.0945186176163 58.784836883991034 3.13688651966217 H 0.0 **** 0.06
20336 C 244.66750780387218 139.17816334596642 17.916977476360984 C 0.0 **** -0.24
20337 H 244.877606016218 138.9975447473943 16.863079840980788 H 0.0 **** 0.06
20338 H 245.59996049478602 139.37656227644055 18.445150184543053 H 0.0 **** 0.06
20339 H 244.1858848048858 138.300285265041 18.345905111742212 H 0.0 **** 0.06
20340 H 244.00477840788975 140.0389400404857 18.012260265269504 H 0.0 **** 0.06
20341 C 113.48076330531063 10.203573515985255 84.35190091470594 C 0.0 **** -0.24
20342 H 112.69204614406652 9.486119419155244 84.12872741015545 H 0.0 **** 0.06
20343 H 114.30483983714817 10.068084819814516 83.65109405352334 H 0.0 **** 0.06
20344 H 113.83842514741121 10.045223403611516 85.36985220458504 H 0.0 **** 0.06
20345 H 113.08715147637659 11.21594842791555 84.25914673354134 H 0.0 **** 0.06
20346 C 70.81769913000014 143.3950928943773 75.4862670457249 C 0.0 **** -0.24
20347 H 71.48539399440381 142.78001442464577 74.88280485540798 H 0.0 **** 0.06
20348 H 69.99189854991519 143.74860602702302 74.86815828139419 H 0.0 **** 0.06
20349 H 71.36936174578094 144.24987550216161 75.8802615144904 H 0.0 **** 0.06
20350 H 70.42623449923028 142.80301270506368 76.31326949902703 H 0.0 **** 0.06
20351 C 172.7486346934282 147.72603918200363 57.95302819935458 C 0.0 **** -0.24
20352 H 172.83441684617324 147.07448427574073 58.82262994459336 H 0.0 **** 0.06
20353 H 171.75647141781104 148.1784103549426 57.93533815923695 H 0.0 **** 0.06
20354 H 172.8983236434849 147.14211694276958 57.0457037858869 H 0.0 **** 0.06
20355 H 173.5042850320603 148.50910654280875 58.01014769697261 H 0.0 **** 0.06
20356 C 97.76443440826867 54.04490942929337 42.07839065584159 C 0.0 **** -0.24
20357 H 98.15041771745987 53.21332412327976 42.66847907203807 H 0.0 **** 0.06
20358 H 97.79172388984168 53.78262380301382 41.02048985272182 H 0.0 **** 0.06
20359 H 98.38090802148676 54.92773914855164 42.24920208678799 H 0.0 **** 0.06
20360 H 96.73684647024268 54.255370489299 42.37532456060892 H 0.0 **** 0.06
20361 C 204.3947207962174 213.39558503845728 133.0593517479467 C 0.0 **** -0.24
20362 H 204.18737327413857 213.14941962964622 132.01733534780269 H 0.0 **** 0.06
20363 H 204.02104328861742 214.39648536716322 133.27648356514115 H 0.0 **** 0.06
20364 H 205.4702537615525 213.3630158036146 133.23245475627877 H 0.0 **** 0.06
20365 H 203.89970736851222 212.6731632445895 133.7078654496818 H 0.0 **** 0.06
20366 C 173.13437540203986 130.82483882684798 147.77347996502073 C 0.0 **** -0.24
20367 H 173.09117114849934 129.74049466043905 147.67267476844864 H 0.0 **** 0.06
20368 H 172.16644871863454 131.19695161423397 148.11068552157138 H 0.0 **** 0.06
20369 H 173.37860941946602 131.26975031544657 146.8088146957126 H 0.0 **** 0.06
20370 H 173.90007312948958 131.09157308860003 148.50127690329072 H 0.0 **** 0.06
20371 C 31.77009933193166 66.88403088253247 206.4224973997545 C 0.0 **** -0.24
20372 H 31.43537195633222 66.03840669642923 207.0226697761833 H 0.0 **** 0.06
20373 H 31.913377729586543 66.56367014564452 205.39061811105643 H 0.0 **** 0.06
20374 H 32.71310769127108 67.25959990068375 206.82065154464075 H 0.0 **** 0.06
20375 H 31.020260895020698 67.67457160786361 206.45747242541768 H 0.0 **** 0.06
20376 C 193.56527071951544 143.10268254535958 223.19524779253385 C 0.0 **** -0.24
20377 H 193.26899252784858 144.1375331078425 223.02640435386593 H 0.0 **** 0.06
20378 H 194.53989115116926 142.92505395602004 222.73972537196948 H 0.0 **** 0.06
20379 H 192.82843322034688 142.4356972737489 222.74704948602698 H 0.0 **** 0.06
20380 H 193.62410938955247 142.91125732091942 224.26659972418062 H 0.0 **** 0.06
20381 C 162.72925659931653 165.30575919471553 24.402921476663295 C 0.0 **** -0.24
20382 H 163.44746693527904 165.1253598994719 25.20291621362601 H 0.0 **** 0.06
20383 H 162.81497693734127 166.3390437236254 24.064432644358348 H 0.0 **** 0.06
20384 H 161.72008939401198 165.12678924493113 24.773063167838373 H 0.0 **** 0.06
20385 H 162.93664954052693 164.6321303348447 23.570756284127526 H 0.0 **** 0.06
20386 C 127.62773355516924 123.51738478718732 234.10992534758364 C 0.0 **** -0.24
20387 H 128.27712215170763 123.73603998593495 234.95813636632863 H 0.0 **** 0.06
20388 H 128.07424590155472 123.91429694774732 233.19822910958635 H 0.0 **** 0.06
20389 H 126.65377828227577 123.98027670217914 234.2702992080374 H 0.0 **** 0.06
20390 H 127.50616831622901 122.43798936941951 234.01526806606145 H 0.0 **** 0.06
20391 C 58.982805734560685 100.08339242442347 39.45609726675116 C 0.0 **** -0.24
20392 H 59.30481597779297 99.61165263127847 38.52783192863268 H 0.0 **** 0.06
20393 H 58.08685821465426 99.58374250424623 39.82488117438925 H 0.0 **** 0.06
20394 H 58.76262016669901 101.13474727668975 39.27148725213729 H 0.0 **** 0.06
20395 H 59.776442391369585 100.00309633447759 40.19827713347175 H 0.0 **** 0.06
20396 C 60.63820746500525 50.121149091901 217.37538096695013 C 0.0 **** -0.24
20397 H 59.65876975967572 50.52273854419633 217.6362511786077 H 0.0 **** 0.06
20398 H 60.58051371658658 49.03387413188186 217.31937947667126 H 0.0 **** 0.06
20399 H 61.36297747462035 50.408706824446284 218.13741151634443 H 0.0 **** 0.06
20400 H 60.94882174002552 50.519629295690024 216.40983197127983 H 0.0 **** 0.06
20401 C 57.30462388627865 133.51666201071856 168.17528791918937 C 0.0 **** -0.24
20402 H 56.92932364277749 132.84798951492837 167.39985552303273 H 0.0 **** 0.06
20403 H 56.799636141115826 134.48020889167498 168.09930525499763 H 0.0 **** 0.06
20404 H 58.37720067882961 133.6577391238873 168.04481250417595 H 0.0 **** 0.06
20405 H 57.11149966487457 133.08037693077617 169.15513123809131 H 0.0 **** 0.06
20406 C 210.242952615913 12.400074505406721 111.04910227358297 C 0.0 **** -0.24
20407 H 210.24502652517202 11.476749778603903 110.47076698489906 H 0.0 **** 0.06
20408 H 211.14620303037685 12.96944396529166 110.82773451358315 H 0.0 **** 0.06
20409 H 210.2139881929184 12.164098154585432 112.11296542047185 H 0.0 **** 0.06
20410 H 209.36558398027486 12.992163598223144 110.78436962529477 H 0.0 **** 0.06
20411 C 40.078681284468615 19.63085768777924 209.5582465426342 C 0.0 **** -0.24
20412 H 40.587145101528094 18.748536201509665 209.17085023273359 H 0.0 **** 0.06
20413 H 39.20781460029957 19.323441014480608 210.13773578538473 H 0.0 **** 0.06
20414 H 39.75930273034193 20.259850817210605 208.72747006930402 H 0.0 **** 0.06
20415 H 40.76032946599392 20.19213774915218 210.19776434835595 H 0.0 **** 0.06
20416 C 169.167736780548 11.652814176601069 47.00605670053827 C 0.0 **** -0.24
20417 H 168.13597159722627 11.890611703442204 46.74994832913892 H 0.0 **** 0.06
20418 H 169.1809773110642 10.920198441378702 47.81445478586794 H 0.0 **** 0.06
20419 H 169.68023440843183 12.558340845841428 47.328981134692754 H 0.0 **** 0.06
20420 H 169.67324056340675 11.240308772986154 46.133757570691216 H 0.0 **** 0.06
20421 C 184.27691855922694 208.19340188118116 177.47022232980902 C 0.0 **** -0.24
20422 H 183.5327229818172 208.62919467037338 176.8023127749457 H 0.0 **** 0.06
20423 H 185.0390680517177 208.93734501596543 177.69978130223421 H 0.0 **** 0.06
20424 H 184.74037041846177 207.33433301527634 176.9851701403812 H 0.0 **** 0.06
20425 H 183.7919280267753 207.87243715488617 178.39259503417165 H 0.0 **** 0.06
20426 C 222.4570768880263 129.9701965403859 164.28300084514922 C 0.0 **** -0.24
20427 H 221.4698631074435 129.53479376942892 164.13122819033077 H 0.0 **** 0.06
20428 H 222.35949905018512 130.9117086317926 164.8245810587586 H 0.0 **** 0.06
20429 H 222.92553674848912 130.1545526105072 163.31528818883325 H 0.0 **** 0.06
20430 H 223.0742728965869 129.280960245026 164.8592499098994 H 0.0 **** 0.06
20431 C 109.61560649819697 38.14899794835094 136.68661967280823 C 0.0 **** -0.24
20432 H 108.84776285235546 38.92401461012636 136.6879978399287 H 0.0 **** 0.06
20433 H 109.32795574862524 37.35253937284915 137.37304982549574 H 0.0 **** 0.06
20434 H 110.56504045446684 38.57921597153087 137.00504734493697 H 0.0 **** 0.06
20435 H 109.71913093821789 37.74253682730887 135.68084156071953 H 0.0 **** 0.06
20436 C 217.09389154881754 93.62838955516219 128.76488217071568 C 0.0 **** -0.24
20437 H 216.7749830681445 94.37947928026463 128.04079916812503 H 0.0 **** 0.06
20438 H 216.8553806549099 93.97167680562396 129.7720201928059 H 0.0 **** 0.06
20439 H 218.1699704735716 93.47525224125317 128.67842011348662 H 0.0 **** 0.06
20440 H 216.57552648388463 92.68999835572959 128.56739498864727 H 0.0 **** 0.06
20441 C 22.769420565550575 239.2796522904931 150.82238122968252 C 0.0 **** -0.24
20442 H 23.8074989048732 239.32426384957063 151.15204581826322 H 0.0 **** 0.06
20443 H 22.231530936491794 238.54030997220275 151.4158963966841 H 0.0 **** 0.06
20444 H 22.73551737196331 238.99706434453873 149.7702846592721 H 0.0 **** 0.06
20445 H 22.305511355323205 240.25748928047318 150.95100717179412 H 0.0 **** 0.06
20446 C 32.990726649277775 57.920517341074 210.88064611268183 C 0.0 **** -0.24
20447 H 31.92021935384028 58.1220198512209 210.92814816640788 H 0.0 **** 0.06
20448 H 33.16151297726398 56.84624180573016 210.95974533469683 H 0.0 **** 0.06
20449 H 33.49278854450549 58.42979658246793 211.70341101187114 H 0.0 **** 0.06
20450 H 33.387259662912044 58.28300920228858 209.93259454116338 H 0.0 **** 0.06
20451 C 158.04379696696236 100.31207245092787 46.138773933277605 C 0.0 **** -0.24
20452 H 159.10171476282483 100.05817923296578 46.20923488082268 H 0.0 **** 0.06
20453 H 157.73145422413288 100.81978540680097 47.05032816455898 H 0.0 **** 0.06
20454 H 157.4598542794689 99.40030669247324 46.01093530921291 H 0.0 **** 0.06
20455 H 157.88397618108263 100.96796366035437 45.28337426035033 H 0.0 **** 0.06
20456 C 29.082064087062776 97.96070657297759 38.60655536477542 C 0.0 **** -0.24
20457 H 29.099390064564943 96.92899660220507 38.95722317308301 H 0.0 **** 0.06
20458 H 29.5254993070603 98.01453323609343 37.61153301344166 H 0.0 **** 0.06
20459 H 29.651374941923024 98.58773653768665 39.29197139388353 H 0.0 **** 0.06
20460 H 28.050821817384104 98.31200029671206 38.563932886977 H 0.0 **** 0.06
20461 C 205.05433183709732 106.89506322781418 157.2134167520914 C 0.0 **** -0.24
20462 H 204.54525717691047 105.94637388864996 157.04186762797377 H 0.0 **** 0.06
20463 H 205.78872334833835 106.77378392512608 158.01127640924886 H 0.0 **** 0.06
20464 H 204.32468588428446 107.65153845272619 157.50320045014536 H 0.0 **** 0.06
20465 H 205.55880979855306 107.20832220967549 156.2995412885997 H 0.0 **** 0.06
20466 C 222.371619379751 83.38466762955989 199.45054588528328 C 0.0 **** -0.24
20467 H 222.36064444635667 82.32588743009367 199.19091612311496 H 0.0 **** 0.06
20468 H 222.7485174632214 83.961500108857 198.6059763532773 H 0.0 **** 0.06
20469 H 223.01800594859236 83.53958637879117 200.31424846768198 H 0.0 **** 0.06
20470 H 221.3595517265421 83.7099856577324 199.69116137525188 H 0.0 **** 0.06
20471 C 122.99598308413485 175.85321761833598 125.73021859416565 C 0.0 **** -0.24
20472 H 123.83084905613217 176.5506404356009 125.79661730612526 H 0.0 **** 0.06
20473 H 122.5781437978558 175.88296604293618 124.72364374020256 H 0.0 **** 0.06
20474 H 122.22810607490467 176.13700375251756 126.45128094739948 H 0.0 **** 0.06
20475 H 123.34614782131789 174.84499397595022 125.94957060458836 H 0.0 **** 0.06
20476 C 138.6504860339568 166.56797528510685 65.66454247949173 C 0.0 **** -0.24
20477 H 139.72670733046922 166.50787507467993 65.50431685987388 H 0.0 **** 0.06
20478 H 138.45321216373546 167.01173342936272 66.64075060565105 H 0.0 **** 0.06
20479 H 138.22176659668258 165.56616273866288 65.62700793405224 H 0.0 **** 0.06
20480 H 138.20070022487167 167.18478720901513 64.88613554789251 H 0.0 **** 0.06
20481 C 8.962182633331466 140.78944271122734 140.7389547016406 C 0.0 **** -0.24
20482 H 9.541004682552568 141.65557973502436 141.05936889976854 H 0.0 **** 0.06
20483 H 7.90070597728635 140.9827793369296 140.89819929403828 H 0.0 **** 0.06
20484 H 9.26328108785681 139.91677079451503 141.31819300486708 H 0.0 **** 0.06
20485 H 9.143278221198372 140.6039207196363 139.68044511575957 H 0.0 **** 0.06
20486 C 160.90575979870556 93.00315714355423 0.18807887225497666 C 0.0 **** -0.24
20487 H 160.23031513462098 92.35664459863747 0.7486835527286928 H 0.0 **** 0.06
20488 H 160.45426622955782 93.9890021674581 0.07657678452429195 H 0.0 **** 0.06
20489 H 161.08736793488674 92.57234307092668 -0.796834978780737 H 0.0 **** 0.06
20490 H 161.85035093966323 93.09321875430058 0.7245516603541091 H 0.0 **** 0.06
20491 C 190.53139355620664 231.45027635669666 45.55952998638858 C 0.0 **** -0.24
20492 H 191.12443914984487 232.3241661732941 45.29124082486503 H 0.0 **** 0.06
20493 H 189.86371489561066 231.19769755954934 44.735769264363114 H 0.0 **** 0.06
20494 H 189.94428765541687 231.67004154760508 46.45076928272714 H 0.0 **** 0.06
20495 H 191.19593880906223 230.60916961828022 45.75998856531807 H 0.0 **** 0.06
20496 C 195.77190778159778 206.26404662578085 115.3074314569588 C 0.0 **** -0.24
20497 H 196.2930155571692 206.74229234713727 116.13733705049785 H 0.0 **** 0.06
20498 H 194.99636472735259 206.93262620355083 114.93312423979393 H 0.0 **** 0.06
20499 H 195.3168742034687 205.33547828921382 115.65082896354062 H 0.0 **** 0.06
20500 H 196.48174566061945 206.04752799861396 114.50979279961138 H 0.0 **** 0.06
20501 C 183.07308039360385 229.90360281677263 225.85771206259827 C 0.0 **** -0.24
20502 H 183.09481976941672 229.2698824040976 224.97136822241384 H 0.0 **** 0.06
20503 H 182.0462666384792 230.21114061215613 226.05809318759492 H 0.0 **** 0.06
20504 H 183.6912929951269 230.7851311372699 225.68969253171377 H 0.0 **** 0.06
20505 H 183.45830334374514 229.34649639016155 226.71215707800474 H 0.0 **** 0.06
20506 C 148.59848702249917 17.360850295930774 230.02456024757356 C 0.0 **** -0.24
20507 H 148.31925471139095 18.377512280871088 229.7454718975709 H 0.0 **** 0.06
20508 H 149.36652362966515 17.395481598413383 230.7967441664966 H 0.0 **** 0.06
20509 H 148.98504299445858 16.837946303930437 229.14962341137533 H 0.0 **** 0.06
20510 H 147.72299556502014 16.834772392381737 230.40449354614904 H 0.0 **** 0.06
20511 C 82.1470190763946 184.79643708180186 51.32804900428154 C 0.0 **** -0.24
20512 H 82.53302424277933 184.28086876410146 50.44941718279871 H 0.0 **** 0.06
20513 H 82.51469613409489 185.823249203251 51.337797458528954 H 0.0 **** 0.06
20514 H 82.48228348197412 184.2809919688914 52.227821574897945 H 0.0 **** 0.06
20515 H 81.0567479327145 184.80054951528888 51.296672170700845 H 0.0 **** 0.06
20516 C 209.7577745356571 79.73232495953712 126.92575643129746 C 0.0 **** -0.24
20517 H 210.02186497614719 78.71942289728162 126.62236523623105 H 0.0 **** 0.06
20518 H 209.17299836839135 80.20685891728976 126.13786816234605 H 0.0 **** 0.06
20519 H 210.66794109807512 80.30758199631262 127.09963786655712 H 0.0 **** 0.06
20520 H 209.17022431932065 79.69524842875083 127.84364185603678 H 0.0 **** 0.06
20521 C 32.32876563573025 124.7590546316608 237.46326144629987 C 0.0 **** -0.24
20522 H 33.37901147797275 124.49907033882857 237.33226753756836 H 0.0 **** 0.06
20523 H 32.2274006568895 125.4514179475706 238.29913329715555 H 0.0 **** 0.06
20524 H 31.754543985094926 123.85479483510287 237.66853272886033 H 0.0 **** 0.06
20525 H 31.954146007604493 125.22792125948621 236.5540679707469 H 0.0 **** 0.06
20526 C 110.6926022038356 218.46415749319965 226.39853528462345 C 0.0 **** -0.24
20527 H 110.77252044938234 219.3828203213019 225.81739481033267 H 0.0 **** 0.06
20528 H 109.7270417112772 217.9951613529053 226.20444215617238 H 0.0 **** 0.06
20529 H 110.77650517950312 218.6981562527231 227.45977815954805 H 0.0 **** 0.06
20530 H 111.49240683310802 217.78172550847015 226.11166823129776 H 0.0 **** 0.06
20531 C 195.3435664273685 49.65420341270439 20.33062631013368 C 0.0 **** -0.24
20532 H 196.12973763508512 48.939901941583514 20.574808225422927 H 0.0 **** 0.06
20533 H 194.92238357361848 49.41093124502554 19.3547117473816 H 0.0 **** 0.06
20534 H 195.76235156555992 50.66054881537977 20.305298184724535 H 0.0 **** 0.06
20535 H 194.56086406543582 49.605276012216834 21.086776876017936 H 0.0 **** 0.06
20536 C 216.9698917496141 43.92355574985338 237.97545953169367 C 0.0 **** -0.24
20537 H 217.44904731438498 44.61116252371629 238.67264490290182 H 0.0 **** 0.06
20538 H 215.89367960434117 44.099490080535006 237.97512899571643 H 0.0 **** 0.06
20539 H 217.17128012982482 42.897575866309694 238.28152089137205 H 0.0 **** 0.06
20540 H 217.36499117194404 44.08899652856945 236.97335855865913 H 0.0 **** 0.06
20541 C 38.7774171364581 13.185710213205624 101.28135042410727 C 0.0 **** -0.24
20542 H 38.08775869396419 13.733479578052396 101.92479858852715 H 0.0 **** 0.06
20543 H 39.13602502051623 13.84453658260523 100.4907400486567 H 0.0 **** 0.06
20544 H 38.262033875994916 12.332622266805373 100.84039054283977 H 0.0 **** 0.06
20545 H 39.622752440639886 12.833576588067643 101.87370396376502 H 0.0 **** 0.06
20546 C 154.06657075651285 103.98769942924886 126.23355035715 C 0.0 **** -0.24
20547 H 153.5531048452229 103.70263352147208 125.31515406047728 H 0.0 **** 0.06
20548 H 153.69863171803036 103.37790461084757 127.05971845676669 H 0.0 **** 0.06
20549 H 153.87437858210254 105.04001201685483 126.44505440954791 H 0.0 **** 0.06
20550 H 155.13800879117696 103.83081385580223 126.1144075396229 H 0.0 **** 0.06
20551 C 148.48407369638596 235.01150707958476 241.2696305517301 C 0.0 **** -0.24
20552 H 147.81461098518213 235.4115669678993 240.50877029930766 H 0.0 **** 0.06
20553 H 147.90342203342092 234.4628449537703 242.01141562184796 H 0.0 **** 0.06
20554 H 149.01227964605658 235.83172847344827 241.756604798157 H 0.0 **** 0.06
20555 H 149.20566435744868 234.34166172910568 240.80339061313302 H 0.0 **** 0.06
20556 C 95.68717628447752 130.83168166573273 212.62039814679719 C 0.0 **** -0.24
20557 H 96.4646070795655 131.59455948573935 212.6012057923403 H 0.0 **** 0.06
20558 H 96.14628802668989 129.84441659823548 212.56625327921057 H 0.0 **** 0.06
20559 H 95.02169240218058 130.96999505140414 211.7689862798926 H 0.0 **** 0.06
20560 H 95.11696688008857 130.9166263621402 213.54508576752443 H 0.0 **** 0.06
20561 C 147.58358226746174 15.358593278735526 41.155319142828034 C 0.0 **** -0.24
20562 H 148.20807388537108 15.376529298398822 40.26144829128722 H 0.0 **** 0.06
20563 H 147.71687498482797 16.28850399405175 41.70904894333907 H 0.0 **** 0.06
20564 H 147.87313392278693 14.515944879281122 41.78327302968373 H 0.0 **** 0.06
20565 H 146.53880182454077 15.2541526946127 40.866129689224294 H 0.0 **** 0.06
20566 C 14.41236793616092 231.18052881957706 216.13747709154651 C 0.0 **** -0.24
20567 H 15.34035806906357 231.16029663058717 215.56648713019135 H 0.0 **** 0.06
20568 H 14.279358804319841 232.16889521945058 216.57892245901826 H 0.0 **** 0.06
20569 H 14.457963271970542 230.43229332093614 216.92907122833668 H 0.0 **** 0.06
20570 H 13.574152326041911 230.9610072265924 215.47693911344714 H 0.0 **** 0.06
20571 C 236.1115587378253 64.17807419486823 85.38984873200826 C 0.0 **** -0.24
20572 H 235.83115907822784 65.10179400667127 85.89737540372735 H 0.0 **** 0.06
20573 H 235.22500835048697 63.7239633355006 84.94656742983656 H 0.0 **** 0.06
20574 H 236.55265716444893 63.488235623993745 86.10956568781793 H 0.0 **** 0.06
20575 H 236.8369321456799 64.4000751814718 84.60716453667581 H 0.0 **** 0.06
20576 C 28.703829653316376 93.61477329745813 44.91268226795995 C 0.0 **** -0.24
20577 H 28.449506140389445 93.38053512145851 45.9469726567942 H 0.0 **** 0.06
20578 H 28.27642682836415 94.58164703082696 44.644647586906075 H 0.0 **** 0.06
20579 H 28.30018541530896 92.84416682043059 44.25603734548557 H 0.0 **** 0.06
20580 H 29.78771164941807 93.65351065840892 44.80455362524381 H 0.0 **** 0.06
20581 C 233.6014479836811 152.3993569119815 235.80777788984176 C 0.0 **** -0.24
20582 H 233.33068699634697 152.48437201904812 236.86014165178284 H 0.0 **** 0.06
20583 H 233.00925301262197 151.61077954750618 235.3434801128407 H 0.0 **** 0.06
20584 H 234.66089900391034 152.15782082440072 235.72289313262905 H 0.0 **** 0.06
20585 H 233.40341907455087 153.34636179302058 235.30470842612385 H 0.0 **** 0.06
20586 C 202.4142986489128 128.533056131606 96.30665138770385 C 0.0 **** -0.24
20587 H 202.3682863288379 128.32029181547824 97.37515023689022 H 0.0 **** 0.06
20588 H 202.51237949552527 129.60782169703174 96.15391077213238 H 0.0 **** 0.06
20589 H 201.50115643061943 128.17948253891618 95.82684040188255 H 0.0 **** 0.06
20590 H 203.2735945575975 128.02364610967507 95.87163928396998 H 0.0 **** 0.06
20591 C 124.67015305408222 135.797107204241 180.44314008221713 C 0.0 **** -0.24
20592 H 123.93509659658872 136.5256037546987 180.100240163695 H 0.0 **** 0.06
20593 H 124.66925019857848 134.93765119318908 179.77259096327793 H 0.0 **** 0.06
20594 H 124.41413189111051 135.4716685883439 181.45199113737806 H 0.0 **** 0.06
20595 H 125.65936697731902 136.25383223713646 180.44885133588014 H 0.0 **** 0.06
20596 C 21.03832253853676 141.0785030389613 52.63227307012065 C 0.0 **** -0.24
20597 H 20.023970668186536 140.90919927164305 52.27161245107361 H 0.0 **** 0.06
20598 H 21.317390226950963 142.11776659758408 52.45758748525144 H 0.0 **** 0.06
20599 H 21.72673985950253 140.42313496354217 52.099233820484415 H 0.0 **** 0.06
20600 H 21.0855126000624 140.86369563683053 53.699737095117825 H 0.0 **** 0.06
20601 C 220.7070326270091 192.55254565971816 95.09605866172868 C 0.0 **** -0.24
20602 H 221.30800696634182 192.08231202178786 95.87415295842808 H 0.0 **** 0.06
20603 H 219.67078094211715 192.2270904510246 95.19018584471038 H 0.0 **** 0.06
20604 H 221.0913422522572 192.2649849256624 94.11735620101987 H 0.0 **** 0.06
20605 H 220.75856130247283 193.63661484160943 95.2024230541285 H 0.0 **** 0.06
20606 C 210.38121663040778 197.83159967654942 133.09206051271946 C 0.0 **** -0.24
20607 H 210.11021565975915 198.8874781048046 133.117354702981 H 0.0 **** 0.06
20608 H 209.53577999953194 197.24796514725563 132.7283446836122 H 0.0 **** 0.06
20609 H 210.64828560449905 197.50137123079932 134.09538144607046 H 0.0 **** 0.06
20610 H 211.23257762370963 197.6920202487497 132.42513726298608 H 0.0 **** 0.06
20611 C 211.78142959388725 95.12947567162331 204.09328068402772 C 0.0 **** -0.24
20612 H 212.00495927328612 94.32478383355075 204.79356212397687 H 0.0 **** 0.06
20613 H 210.74431995717578 95.44273939032968 204.2198864863097 H 0.0 **** 0.06
20614 H 211.93314558775214 94.77610077831613 203.07376805379653 H 0.0 **** 0.06
20615 H 212.4422851143344 95.97381977374442 204.28784836255883 H 0.0 **** 0.06
20616 C 63.92081393965623 35.93539201313894 121.53508872082145 C 0.0 **** -0.24
20617 H 62.99396983944473 35.88248797687504 120.96513544895984 H 0.0 **** 0.06
20618 H 64.06548634835656 35.001619339486 122.07923581993995 H 0.0 **** 0.06
20619 H 63.86575757247306 36.76322237975387 122.24279929737904 H 0.0 **** 0.06
20620 H 64.75705681385705 36.09371971263039 120.85536616909579 H 0.0 **** 0.06
20621 C 222.8911731763959 89.20099822663028 80.38077822497888 C 0.0 **** -0.24
20622 H 222.860459544359 89.13659144161127 81.46915500855457 H 0.0 **** 0.06
20623 H 222.01178658512038 89.73728578223574 80.0235871643207 H 0.0 **** 0.06
20624 H 222.90147333468207 88.19583294100855 79.9582380101501 H 0.0 **** 0.06
20625 H 223.79175926591495 89.73333831365767 80.07400094330086 H 0.0 **** 0.06
20626 C 22.122036572928025 224.46650840637813 46.304648199227 C 0.0 **** -0.24
20627 H 21.412103119160776 224.30041880200457 45.49278285999357 H 0.0 **** 0.06
20628 H 23.138139739015287 224.3991405533876 45.9166359674642 H 0.0 **** 0.06
20629 H 21.974190825499534 223.70945846704433 47.075116627044665 H 0.0 **** 0.06
20630 H 21.95975927061798 225.45642394262865 46.73160356191602 H 0.0 **** 0.06
20631 C 21.34590107079582 141.5486715447438 169.71254615826246 C 0.0 **** -0.24
20632 H 22.11946937389925 142.25499453672288 170.01262193722158 H 0.0 **** 0.06
20633 H 20.566007196202264 141.51788890559135 170.47455636783033 H 0.0 **** 0.06
20634 H 21.782994491457345 140.55673032662276 169.60049918103851 H 0.0 **** 0.06
20635 H 20.913734534128494 141.86486373396727 168.76249502006658 H 0.0 **** 0.06
20636 C 66.16231672322624 181.61486546130283 72.28420012254747 C 0.0 **** -0.24
20637 H 65.47325152898586 181.37128521222493 73.09335733653367 H 0.0 **** 0.06
20638 H 66.97734706898842 180.89154140700109 72.27205877559845 H 0.0 **** 0.06
20639 H 66.56537982810525 182.6154266625997 72.43991133707718 H 0.0 **** 0.06
20640 H 65.63067930222894 181.5807941033675 71.332894508757 H 0.0 **** 0.06
20641 C 55.51353514471083 100.86889456885146 178.170765398152 C 0.0 **** -0.24
20642 H 55.877708510931626 101.87164645549407 178.3948546317816 H 0.0 **** 0.06
20643 H 54.58620887329792 100.68906407862988 178.71607958755453 H 0.0 **** 0.06
20644 H 56.26082176728056 100.13432145913609 178.47068975222263 H 0.0 **** 0.06
20645 H 55.328206425673585 100.78111760480166 177.09963606335015 H 0.0 **** 0.06
20646 C 105.91735485505049 211.06980087021861 28.76889496592861 C 0.0 **** -0.24
20647 H 106.80038329416482 211.6909754657317 28.91564460719775 H 0.0 **** 0.06
20648 H 105.02416540748214 211.69318477864866 28.806507193506775 H 0.0 **** 0.06
20649 H 105.86866745086678 210.31601023416866 29.554171843367257 H 0.0 **** 0.06
20650 H 105.97698471891707 210.5781811424879 27.7973421356631 H 0.0 **** 0.06
20651 C 186.81145697832488 54.18582601376221 232.29638140439624 C 0.0 **** -0.24
20652 H 185.79181242763028 53.84169773085344 232.46867847665084 H 0.0 **** 0.06
20653 H 187.3551941034669 54.19773729050209 233.24112032676265 H 0.0 **** 0.06
20654 H 186.7882678583889 55.19225326052941 231.87809557676485 H 0.0 **** 0.06
20655 H 187.3086808836589 53.51315806280536 231.5979697930714 H 0.0 **** 0.06
20656 C 14.920970955880179 163.05657958474094 81.57580277846418 C 0.0 **** -0.24
20657 H 15.2556895605655 163.128401499121 80.5409512734436 H 0.0 **** 0.06
20658 H 14.455081372869884 163.9969681846851 81.87172972030484 H 0.0 **** 0.06
20659 H 15.776759445607695 162.85593257961207 82.22041538288781 H 0.0 **** 0.06
20660 H 14.197503553127703 162.24678623442972 81.66798310046553 H 0.0 **** 0.06
20661 C 212.4816861113828 199.44889313015682 144.49887993382416 C 0.0 **** -0.24
20662 H 212.20548718160703 198.79490780326464 145.325699084354 H 0.0 **** 0.06
20663 H 211.58602615889217 199.7344953829118 143.9461284674916 H 0.0 **** 0.06
20664 H 213.16802231650155 198.92388761483977 143.83395407448583 H 0.0 **** 0.06
20665 H 212.96868385926825 200.3431862617456 144.88966065537903 H 0.0 **** 0.06
20666 C 67.7590940156729 134.65562514777798 4.639270304632575 C 0.0 **** -0.24
20667 H 66.77287698464156 134.7857915843089 5.08381639522166 H 0.0 **** 0.06
20668 H 67.74013722658353 135.0014952165817 3.6052199597089185 H 0.0 **** 0.06
20669 H 68.03319745324845 133.60070263304686 4.6643973332876385 H 0.0 **** 0.06
20670 H 68.49066743375496 135.2348667213272 5.202859787257779 H 0.0 **** 0.06
20671 C 204.74453915955962 218.78595788236714 86.31667964314192 C 0.0 **** -0.24
20672 H 203.6797727471355 219.00949783376075 86.24255166750504 H 0.0 **** 0.06
20673 H 205.0334105915152 218.73960599895784 87.3672648989195 H 0.0 **** 0.06
20674 H 205.3153768515872 219.5692360009619 85.81766432252746 H 0.0 **** 0.06
20675 H 204.9484279320451 217.82732660346375 85.8397551128096 H 0.0 **** 0.06
20676 C 54.67999424173817 154.89615853578394 205.5748641702135 C 0.0 **** -0.24
20677 H 55.357582082750554 155.0247794182335 206.41906258153125 H 0.0 **** 0.06
20678 H 54.72825581666925 155.7767595852034 204.93389756711093 H 0.0 **** 0.06
20679 H 53.662217015224854 154.7674814299553 205.94159333069933 H 0.0 **** 0.06
20680 H 54.9744152227191 154.01446434303523 205.00558374201233 H 0.0 **** 0.06
20681 C 162.02092122641275 226.00256517024764 188.83889995780257 C 0.0 **** -0.24
20682 H 162.14996605175025 225.11448100407975 189.45804091230912 H 0.0 **** 0.06
20683 H 161.47596395012144 226.7609628429304 189.4017330717573 H 0.0 **** 0.06
20684 H 161.45999984931467 225.74122280639577 187.94239511536458 H 0.0 **** 0.06
20685 H 162.9991247768338 226.3918845742777 188.55629460269301 H 0.0 **** 0.06
20686 C 70.55790105923404 93.68026382607351 56.69622425186762 C 0.0 **** -0.24
20687 H 69.83624624426014 93.86749858083397 57.4900945334133 H 0.0 **** 0.06
20688 H 70.54101781241744 94.50842343908803 55.987025274089376 H 0.0 **** 0.06
20689 H 70.30014202407813 92.75476151800595 56.18115306410698 H 0.0 **** 0.06
20690 H 71.55562534397359 93.59089223030654 57.12579210130457 H 0.0 **** 0.06
20691 C 221.99042728439673 170.35442816094832 207.90381284889173 C 0.0 **** -0.24
20692 H 221.4888734417892 169.82954610369333 208.71673851343468 H 0.0 **** 0.06
20693 H 221.2572446195622 170.64279269973198 207.15069224775633 H 0.0 **** 0.06
20694 H 222.73633720530933 169.69817648259402 207.4535077186262 H 0.0 **** 0.06
20695 H 222.48107931159615 171.2459017252991 208.29530748162256 H 0.0 **** 0.06
20696 C 56.457179893798894 141.00652386022608 9.448691466706535 C 0.0 **** -0.24
20697 H 57.36826250278355 140.9143055783323 10.041090699381357 H 0.0 **** 0.06
20698 H 56.44727355396057 140.23559260452288 8.677721013619092 H 0.0 **** 0.06
20699 H 56.42559356830495 141.990168891044 8.980839652564256 H 0.0 **** 0.06
20700 H 55.58975125948629 140.88378577940563 10.096931000472594 H 0.0 **** 0.06
20701 C 145.31766720488014 28.74225367530741 228.96150076452352 C 0.0 **** -0.24
20702 H 144.97843922661863 28.37497538267192 229.93044689853573 H 0.0 **** 0.06
20703 H 144.45804476543276 29.06612692486945 228.3747981580011 H 0.0 **** 0.06
20704 H 145.83807189374264 27.943055459313115 228.43348775076947 H 0.0 **** 0.06
20705 H 145.99537562041286 29.582978099776568 229.10865820181508 H 0.0 **** 0.06
20706 C 46.79702008135213 56.00207480003954 157.66644479649293 C 0.0 **** -0.24
20707 H 46.55668059516407 55.040175362337095 158.11818915150675 H 0.0 **** 0.06
20708 H 47.87754768657122 56.0871849919545 157.54803058496972 H 0.0 **** 0.06
20709 H 46.436513396991714 56.805169089241815 158.30862238454134 H 0.0 **** 0.06
20710 H 46.317272154962254 56.075196080596015 156.6901206799939 H 0.0 **** 0.06
20711 C 226.2047281154777 61.78871679539418 0.9888381001636191 C 0.0 **** -0.24
20712 H 226.805468740553 62.11928164352409 0.14168336282253335 H 0.0 **** 0.06
20713 H 226.71868957348718 62.038119867277004 1.9178092022834647 H 0.0 **** 0.06
20714 H 226.06044964342115 60.709527294133096 0.9320902578307084 H 0.0 **** 0.06
20715 H 225.2359076193491 62.286751022055654 0.9639118825070341 H 0.0 **** 0.06
20716 C 147.38824555095252 144.25046049878438 53.52340124563642 C 0.0 **** -0.24
20717 H 146.44304708228057 144.3959653172284 53.001664953233586 H 0.0 **** 0.06
20718 H 147.93072421874908 145.1953001999991 53.562839900626926 H 0.0 **** 0.06
20719 H 147.98538161921383 143.50941005021477 52.99301901809619 H 0.0 **** 0.06
20720 H 147.19389521087768 143.90043338682582 54.537649018075456 H 0.0 **** 0.06
20721 C 34.99183929094217 74.2924183162466 242.0302671827019 C 0.0 **** -0.24
20722 H 34.59849977204996 74.50406294551834 241.03581902111478 H 0.0 **** 0.06
20723 H 34.82223809980161 73.24406665556336 242.27305883705634 H 0.0 **** 0.06
20724 H 34.48591049467187 74.9228005602854 242.76228689502597 H 0.0 **** 0.06
20725 H 36.061871929495084 74.50173917450826 242.04861138353374 H 0.0 **** 0.06
20726 C 87.60006428283108 13.89531628622683 3.054166823670471 C 0.0 **** -0.24
20727 H 87.60998449036404 12.899802325425242 3.4977962984961835 H 0.0 **** 0.06
20728 H 88.62098754156204 14.26942416816081 2.978903555124802 H 0.0 **** 0.06
20729 H 87.01241749582965 14.566112588727776 3.680923669270584 H 0.0 **** 0.06
20730 H 87.15658175514744 13.845308524380073 2.0597765384466697 H 0.0 **** 0.06
20731 C 72.87355517975087 68.64774068445692 65.47394532295073 C 0.0 **** -0.24
20732 H 73.85390423839519 69.07035142991677 65.25343125964358 H 0.0 **** 0.06
20733 H 72.53163380343901 69.01008743350212 66.44396139755969 H 0.0 **** 0.06
20734 H 72.9434360100266 67.56060356794825 65.49548876454907 H 0.0 **** 0.06
20735 H 72.16591029519978 68.95067919459902 64.70190805047525 H 0.0 **** 0.06
20736 C 19.36507943547977 69.21514216321776 21.220017822822655 C 0.0 **** -0.24
20737 H 18.95973025071217 68.9688702286127 20.238634747068858 H 0.0 **** 0.06
20738 H 20.452533211802148 69.15071170042987 21.189512669936647 H 0.0 **** 0.06
20739 H 18.979148364120675 68.51221779212514 21.95882436943208 H 0.0 **** 0.06
20740 H 19.06845682179116 70.22848080581312 21.49225374587806 H 0.0 **** 0.06
20741 C 78.11282827047145 106.05217619205595 8.816180278989648 C 0.0 **** -0.24
20742 H 78.70509984895435 106.93209245797922 9.065307358210873 H 0.0 **** 0.06
20743 H 77.0639682346258 106.33565050004773 8.721933140617736 H 0.0 **** 0.06
20744 H 78.21824434873716 105.30842037730685 9.606628453871167 H 0.0 **** 0.06
20745 H 78.46350951769881 105.63335639423553 7.873697284544221 H 0.0 **** 0.06
20746 C 234.6138908024089 47.650127938136194 242.011424354055 C 0.0 **** -0.24
20747 H 235.36926952709905 47.84382792458078 242.77388083135395 H 0.0 **** 0.06
20748 H 235.05952224653618 47.08026998423756 241.19679309623962 H 0.0 **** 0.06
20749 H 234.23446408099568 48.59798721032965 241.6290086933975 H 0.0 **** 0.06
20750 H 233.79375779542 47.08108935064857 242.4491463035638 H 0.0 **** 0.06
20751 C 248.29146585705053 185.88315533805303 232.00411835627995 C 0.0 **** -0.24
20752 H 248.48053360810178 186.93489007432663 231.79021184712064 H 0.0 **** 0.06
20753 H 249.2134499223486 185.40912826819883 232.34121224857182 H 0.0 **** 0.06
20754 H 247.93609991194 185.38604112931824 231.10162288500868 H 0.0 **** 0.06
20755 H 247.53473737203555 185.80148940762848 232.7853662426457 H 0.0 **** 0.06
20756 C 38.815155279724905 49.42900796532771 35.489432880556635 C 0.0 **** -0.24
20757 H 39.202744316887376 49.50235822519244 36.505625799333885 H 0.0 **** 0.06
20758 H 37.82215983720994 48.97963157200762 35.5112842139641 H 0.0 **** 0.06
20759 H 39.48208115716385 48.80881275420046 34.890128827532905 H 0.0 **** 0.06
20760 H 38.75438327937215 50.42563920240434 35.05121544701055 H 0.0 **** 0.06
20761 C 166.59383040201806 5.503316586666301 44.4490708199518 C 0.0 **** -0.24
20762 H 166.8475885382459 5.637323913408466 43.39742572024497 H 0.0 **** 0.06
20763 H 167.06153804401023 4.5914991485003185 44.82135444368603 H 0.0 **** 0.06
20764 H 165.51243304139103 5.426699521008743 44.55474071493089 H 0.0 **** 0.06
20765 H 166.9558670766499 6.3575045445272735 45.0215330029973 H 0.0 **** 0.06
20766 C 150.6739587752347 93.66735254030363 174.3577300098017 C 0.0 **** -0.24
20767 H 149.9808837621494 93.02571627623288 174.90245976529678 H 0.0 **** 0.06
20768 H 151.4999306931741 93.06736772122554 173.97648708016524 H 0.0 **** 0.06
20769 H 151.06038610389447 94.43499095451 175.02862401000445 H 0.0 **** 0.06
20770 H 150.15234878514272 94.14133851364585 173.5261376299986 H 0.0 **** 0.06
20771 C 248.92636604159304 80.14759019088507 9.904591341641634 C 0.0 **** -0.24
20772 H 249.76950935914456 80.56604125932265 9.356098309673385 H 0.0 **** 0.06
20773 H 249.12702462349165 79.1003740520654 10.134756670650162 H 0.0 **** 0.06
20774 H 248.02528746997888 80.21893221924748 9.295623945477615 H 0.0 **** 0.06
20775 H 248.78428948191277 80.7029098960823 10.831489308732387 H 0.0 **** 0.06
20776 C 122.54875715041038 230.18475360225796 195.04755427552348 C 0.0 **** -0.24
20777 H 122.92137857078785 230.87244114068835 194.28783017837563 H 0.0 **** 0.06
20778 H 123.04786996353133 230.38691848677777 195.99495773920327 H 0.0 **** 0.06
20779 H 122.75422529094223 229.1587535636456 194.74034043395667 H 0.0 **** 0.06
20780 H 121.47408394862623 230.32051730314566 195.1655215923552 H 0.0 **** 0.06
20781 C 241.93751439380617 66.21023287588145 27.93836833248426 C 0.0 **** -0.24
20782 H 242.30626866355738 65.50331944663643 28.681735847973613 H 0.0 **** 0.06
20783 H 241.19495650999414 65.71975982523321 27.309311466530147 H 0.0 **** 0.06
20784 H 242.7679000377649 66.55490150192966 27.322231344302253 H 0.0 **** 0.06
20785 H 241.48154589225516 67.06219754844153 28.44336585514219 H 0.0 **** 0.06
20786 C 65.40909774062808 87.4064301291919 14.379715533310204 C 0.0 **** -0.24
20787 H 64.49252515037571 87.98067979600151 14.239296195390722 H 0.0 **** 0.06
20788 H 65.95791933420364 87.80220079942046 15.233801592367342 H 0.0 **** 0.06
20789 H 66.0256985773369 87.48221924716847 13.483637414755975 H 0.0 **** 0.06
20790 H 65.15845130378355 86.36150168746829 14.560714091776532 H 0.0 **** 0.06
20791 C 103.3900702914726 67.98983010584325 63.1481302627804 C 0.0 **** -0.24
20792 H 102.61457192622444 68.24287060177525 63.871419531721614 H 0.0 **** 0.06
20793 H 104.32029885598601 68.48713955592186 63.424410385393145 H 0.0 **** 0.06
20794 H 103.08206566593319 68.3178601660928 62.155776499831006 H 0.0 **** 0.06
20795 H 103.54255511744648 66.91025629027723 63.14290244934131 H 0.0 **** 0.06
20796 C 99.99865264270994 127.37931752778707 186.66305274051314 C 0.0 **** -0.24
20797 H 99.24874263875768 126.86310403548737 186.0630875813741 H 0.0 **** 0.06
20798 H 99.62135480289766 128.36156939969572 186.94816530206444 H 0.0 **** 0.06
20799 H 100.91208068473537 127.49539089777116 186.08019619859914 H 0.0 **** 0.06
20800 H 100.2107447842696 126.7968251867446 187.55934519305058 H 0.0 **** 0.06
20801 C 87.60090872605858 190.4917494456289 48.57844078892627 C 0.0 **** -0.24
20802 H 87.52740574452562 191.12606570471175 47.69482448732333 H 0.0 **** 0.06
20803 H 86.64315441367415 190.4829112460309 49.099091473896465 H 0.0 **** 0.06
20804 H 88.37289706715657 190.8818630977704 49.242926999616074 H 0.0 **** 0.06
20805 H 87.86053213384434 189.47699753692106 48.27650897415931 H 0.0 **** 0.06
20806 C 122.12689557202603 9.633858606888182 69.28876172193148 C 0.0 **** -0.24
20807 H 123.20944966008653 9.715115559594949 69.19247298871986 H 0.0 **** 0.06
20808 H 121.85805589474398 9.606530599046494 70.3452691700517 H 0.0 **** 0.06
20809 H 121.78644837246893 8.71987071147612 68.80210537449051 H 0.0 **** 0.06
20810 H 121.65458530055594 10.495051358643153 68.81609310518135 H 0.0 **** 0.06
20811 C 207.3844406602404 177.83701943851878 123.22314322005869 C 0.0 **** -0.24
20812 H 207.0598954838544 176.99648895446566 122.61006859261406 H 0.0 **** 0.06
20813 H 208.44676532923856 177.73666661355304 123.44414586896895 H 0.0 **** 0.06
20814 H 206.81799768260055 177.84634544432504 124.15516090355428 H 0.0 **** 0.06
20815 H 207.21134257495294 178.76878231761327 122.68455937311833 H 0.0 **** 0.06
20816 C 80.91234253581132 166.5292961777018 76.84632967251807 C 0.0 **** -0.24
20817 H 81.74088618117042 167.01204341308073 76.32837977089443 H 0.0 **** 0.06
20818 H 80.636778932896 167.1189541751991 77.72055545218959 H 0.0 **** 0.06
20819 H 81.21423038345404 165.53012394763763 77.16182636045241 H 0.0 **** 0.06
20820 H 80.0583798466952 166.45440822597476 76.1733563551131 H 0.0 **** 0.06
20821 C 195.1112650865025 88.77550647728319 83.04893196464013 C 0.0 **** -0.24
20822 H 194.47811910791296 88.78296693831527 82.16166251227995 H 0.0 **** 0.06
20823 H 194.79034794392305 89.56330039851176 83.73137354185732 H 0.0 **** 0.06
20824 H 196.14762672816948 88.94649751969271 82.75733432714023 H 0.0 **** 0.06
20825 H 195.02846644265372 87.80867085927969 83.54599116348356 H 0.0 **** 0.06
20826 C 76.16727481586514 26.999749709174083 134.6635082535629 C 0.0 **** -0.24
20827 H 76.30210382821019 26.59857081708212 135.66798732403376 H 0.0 **** 0.06
20828 H 76.89571574049862 27.791876714093945 134.48886232254523 H 0.0 **** 0.06
20829 H 75.16036896809663 27.40473604506772 134.56635763431333 H 0.0 **** 0.06
20830 H 76.31163260573607 26.204629785699936 133.93250367202432 H 0.0 **** 0.06
20831 C 107.76146176497465 140.35631347307336 246.68303719707927 C 0.0 **** -0.24
20832 H 108.10205499208129 141.27007314080473 247.16912986725157 H 0.0 **** 0.06
20833 H 106.75493580703662 140.11534952237244 247.0273444074639 H 0.0 **** 0.06
20834 H 108.43715984045409 139.53818502543373 246.93358764830464 H 0.0 **** 0.06
20835 H 107.75133853014702 140.50079403480584 245.60246861464225 H 0.0 **** 0.06
20836 C 114.91601773630686 36.29906764520595 199.44482394382294 C 0.0 **** -0.24
20837 H 114.99463803929152 35.496558789292095 198.71184103338823 H 0.0 **** 0.06
20838 H 115.04338031031901 35.88802432773704 200.4469251100944 H 0.0 **** 0.06
20839 H 113.93643939560724 36.76850493727747 199.36583373163057 H 0.0 **** 0.06
20840 H 115.69153650014306 37.04110714771767 199.25569279890598 H 0.0 **** 0.06
20841 C 92.34157931632532 98.47976179073456 104.20359982462625 C 0.0 **** -0.24
20842 H 91.5239364611468 99.1919596034754 104.09349531121975 H 0.0 **** 0.06
20843 H 93.08974165713923 98.88810867859738 104.88326334672124 H 0.0 **** 0.06
20844 H 92.79653419938191 98.29662758565345 103.22986552206001 H 0.0 **** 0.06
20845 H 91.95596740600112 97.54374664386964 104.6060332421849 H 0.0 **** 0.06
20846 C 233.50982336935252 6.17470962670734 58.73733502064897 C 0.0 **** -0.24
20847 H 232.69474056946393 6.848326532083689 58.472869781398856 H 0.0 **** 0.06
20848 H 234.16382505026007 6.0411694715549515 57.87580940047212 H 0.0 **** 0.06
20849 H 233.10138704832207 5.210331462762113 59.03694657435412 H 0.0 **** 0.06
20850 H 234.0796078086929 6.601411819576498 59.56330808842711 H 0.0 **** 0.06
20851 C 41.96787135882067 226.95374959803752 165.50290996156923 C 0.0 **** -0.24
20852 H 42.31218572410647 227.8430941744982 166.03141958126014 H 0.0 **** 0.06
20853 H 41.30495084975543 227.24841819147343 164.68995462524003 H 0.0 **** 0.06
20854 H 41.430663228873485 226.30524155474828 166.1943651689478 H 0.0 **** 0.06
20855 H 42.82651393725703 226.41827221165101 165.09589954967637 H 0.0 **** 0.06
20856 C 8.739605242324586 130.6811363866817 215.19644383608852 C 0.0 **** -0.24
20857 H 8.158289512632265 130.62928229417557 214.2759283591832 H 0.0 **** 0.06
20858 H 8.083074711446528 130.512509460784 216.05024954837867 H 0.0 **** 0.06
20859 H 9.200285613251793 131.66532811825422 215.28014448180005 H 0.0 **** 0.06
20860 H 9.516075951608599 129.91639271910915 215.1787823217521 H 0.0 **** 0.06
20861 C 61.87693829557273 99.85915180927043 11.51676997260239 C 0.0 **** -0.24
20862 H 61.50096115762881 99.61893313024032 12.51099416342555 H 0.0 **** 0.06
20863 H 61.415395216005294 100.7826028922376 11.167193584664574 H 0.0 **** 0.06
20864 H 61.63218456134075 99.04835261355208 10.830141361748588 H 0.0 **** 0.06
20865 H 62.95920564659241 99.98571875301002 11.55876721411272 H 0.0 **** 0.06
20866 C 227.76752808299415 185.65329512581962 80.07143092613077 C 0.0 **** -0.24
20867 H 228.11057542331412 186.20434751452595 79.1963524459263 H 0.0 **** 0.06
20868 H 228.62537122338398 185.22819482193114 80.59352139501561 H 0.0 **** 0.06
20869 H 227.0991794267453 184.85222383353346 79.75804232876445 H 0.0 **** 0.06
20870 H 227.2345402826657 186.32980115879366 80.73977676790795 H 0.0 **** 0.06
20871 C 15.817387081552255 205.80261311287026 214.67185899550265 C 0.0 **** -0.24
20872 H 14.982833663633272 205.10055691407703 214.65904223710461 H 0.0 **** 0.06
20873 H 15.599789421589747 206.63760651570126 214.00510952640263 H 0.0 **** 0.06
20874 H 16.722892666022602 205.29556292590408 214.33728116896074 H 0.0 **** 0.06
20875 H 15.962678384107704 206.1750068623322 215.68554429895553 H 0.0 **** 0.06
20876 C 174.16743890394943 86.71767145845556 47.85183840512575 C 0.0 **** -0.24
20877 H 174.25908008084053 87.41753128057925 48.683188334591634 H 0.0 **** 0.06
20878 H 174.33948371570992 85.70306105408915 48.209792131210506 H 0.0 **** 0.06
20879 H 174.90394174248274 86.96466598103947 47.087457060514296 H 0.0 **** 0.06
20880 H 173.16586503114203 86.78889933218781 47.42674789196285 H 0.0 **** 0.06
20881 C 196.8476756615765 170.661323862466 111.97131834635326 C 0.0 **** -0.24
20882 H 197.31584194458298 169.71823472785212 111.68707057194933 H 0.0 **** 0.06
20883 H 196.45295098259885 171.152365032811 111.08235965391103 H 0.0 **** 0.06
20884 H 197.58900578566005 171.30532380634637 112.44452262537925 H 0.0 **** 0.06
20885 H 196.03552720899097 170.46621400038487 112.6709379516908 H 0.0 **** 0.06
20886 C 160.76377359107357 122.03256424983473 140.22028026287754 C 0.0 **** -0.24
20887 H 160.3022118113407 121.21599759228846 139.66534226350024 H 0.0 **** 0.06
20888 H 160.3701199112519 122.98343666949032 139.86301988465414 H 0.0 **** 0.06
20889 H 161.8437740389824 122.00664522976354 140.07225386469986 H 0.0 **** 0.06
20890 H 160.53997738389165 121.92230160152894 141.2817311487213 H 0.0 **** 0.06
20891 C 106.02973800941626 54.62142828238714 111.32203158602906 C 0.0 **** -0.24
20892 H 106.36517515993472 55.26000423348751 110.50474629725733 H 0.0 **** 0.06
20893 H 106.30004256679649 53.58680826356141 111.10914091221136 H 0.0 **** 0.06
20894 H 104.94770352189812 54.701189962763124 111.42506560004509 H 0.0 **** 0.06
20895 H 106.50683393952107 54.93814797086631 112.25025230079319 H 0.0 **** 0.06
20896 C 209.41622212358808 4.698533546960022 89.00746744408474 C 0.0 **** -0.24
20897 H 209.10298734117663 5.408445193491474 88.24264329176111 H 0.0 **** 0.06
20898 H 209.97545943054854 5.22293190923844 89.78239038385979 H 0.0 **** 0.06
20899 H 210.04926655019145 3.9342000335769285 88.55585520872242 H 0.0 **** 0.06
20900 H 208.5369158324446 4.228522655226925 89.44801571356626 H 0.0 **** 0.06
20901 C 93.33444054946048 61.15738945101205 138.60446966306208 C 0.0 **** -0.24
20902 H 93.35602902584 62.246505263890555 138.64079116464077 H 0.0 **** 0.06
20903 H 92.30742354932565 60.8202082217974 138.46139458778077 H 0.0 **** 0.06
20904 H 93.72275019098336 60.755194848967875 139.54018633680386 H 0.0 **** 0.06
20905 H 93.95023535372135 60.80944587483475 137.77564725310387 H 0.0 **** 0.06
20906 C 214.98809390407155 85.46154142358466 8.039085551074436 C 0.0 **** -0.24
20907 H 215.08231263324103 84.53362409816467 7.474640831693534 H 0.0 **** 0.06
20908 H 215.42464662466747 85.32935889185515 9.02983581447937 H 0.0 **** 0.06
20909 H 213.9343408982395 85.72220041562326 8.136963331143477 H 0.0 **** 0.06
20910 H 215.5133763797613 86.2601611499363 7.514724579996198 H 0.0 **** 0.06
20911 C 166.0990814827527 103.88229816808206 162.20455518018102 C 0.0 **** -0.24
20912 H 166.81830839190852 104.39405387262136 161.56442134312186 H 0.0 **** 0.06
20913 H 165.26250003684973 104.54842014544599 162.41443266861123 H 0.0 **** 0.06
20914 H 166.58221011444047 103.59857535176522 163.13942717986984 H 0.0 **** 0.06
20915 H 165.73422002793612 102.98922057640004 161.69793787296607 H 0.0 **** 0.06
20916 C 147.34793087986893 20.492089350124573 46.15531825579366 C 0.0 **** -0.24
20917 H 148.28210653315105 20.990081547842536 45.89277644284694 H 0.0 **** 0.06
20918 H 146.97938469890596 19.93483919007474 45.2940525935455 H 0.0 **** 0.06
20919 H 146.60937735794312 21.238518192179725 46.448021603746895 H 0.0 **** 0.06
20920 H 147.521729034004 19.80784050182143 46.98558705613587 H 0.0 **** 0.06
20921 C 179.76898388240863 175.87661965291335 168.14264497241373 C 0.0 **** -0.24
20922 H 180.00067164276007 174.93046584288263 167.6535301406136 H 0.0 **** 0.06
20923 H 179.51375225976363 175.69352844430563 169.1866334789652 H 0.0 **** 0.06
20924 H 178.92479509094835 176.34800148543752 167.63896349989844 H 0.0 **** 0.06
20925 H 180.63703493217355 176.5344791363919 168.08975023104944 H 0.0 **** 0.06
20926 C 231.92342535491392 179.8527288121335 2.8991654646092258 C 0.0 **** -0.24
20927 H 232.46200424739766 178.9059332043081 2.931913248643596 H 0.0 **** 0.06
20928 H 232.63107920338422 180.666614891447 2.7342228322245177 H 0.0 **** 0.06
20929 H 231.40501170189953 180.00847735542058 3.845270239409615 H 0.0 **** 0.06
20930 H 231.19794243479828 179.83131919706003 2.085962089141873 H 0.0 **** 0.06
20931 C 144.47041178563092 203.1244702641759 25.439840966605942 C 0.0 **** -0.24
20932 H 144.48719496790133 203.96571855457645 26.132871420042164 H 0.0 **** 0.06
20933 H 144.87858479646664 202.24097794134593 25.932812261969758 H 0.0 **** 0.06
20934 H 145.07325693868316 203.36368972566922 24.563494947684745 H 0.0 **** 0.06
20935 H 143.44348013188437 202.92726284731924 25.132232152812463 H 0.0 **** 0.06
20936 C 184.8219953721577 130.8264112338374 189.1772209205475 C 0.0 **** -0.24
20937 H 184.6873572439128 130.30065742940727 190.1231284700063 H 0.0 **** 0.06
20938 H 184.5059287127905 130.18253176783918 188.35605974526158 H 0.0 **** 0.06
20939 H 185.8727426563999 131.0866305653706 189.05339602964722 H 0.0 **** 0.06
20940 H 184.22023015354745 131.73521396818745 189.17940729579354 H 0.0 **** 0.06
20941 C 56.178295456985296 122.52086410044461 6.7216501380002285 C 0.0 **** -0.24
20942 H 55.48724315536313 123.17343482439509 6.18932812762543 H 0.0 **** 0.06
20943 H 55.66091083782737 122.0464637343733 7.556526196902865 H 0.0 **** 0.06
20944 H 57.01541942668845 123.10852663384756 7.098421653673057 H 0.0 **** 0.06
20945 H 56.54994018378014 121.7537716390373 6.041773731310769 H 0.0 **** 0.06
20946 C 205.2840735848742 53.32920114221707 235.55125075872897 C 0.0 **** -0.24
20947 H 204.4807863223335 53.46349115510641 236.2760944254422 H 0.0 **** 0.06
20948 H 205.5221823797125 54.28799494676102 235.09183787154484 H 0.0 **** 0.06
20949 H 204.96530783367103 52.62615464529169 234.78210670076518 H 0.0 **** 0.06
20950 H 206.16686330217817 52.93808796752725 236.05835664680183 H 0.0 **** 0.06
20951 C 173.724485309361 207.35937596787517 190.80859780812023 C 0.0 **** -0.24
20952 H 172.97500507281194 206.66916204813208 190.42017188504633 H 0.0 **** 0.06
20953 H 174.47704973046854 206.80136536681778 191.36699868942958 H 0.0 **** 0.06
20954 H 173.24481993464562 208.081866390333 191.46825929574857 H 0.0 **** 0.06
20955 H 174.20026378235997 207.883508243789 189.97985009676142 H 0.0 **** 0.06
20956 C 61.56738999384484 31.710430316682647 163.36973188085744 C 0.0 **** -0.24
20957 H 60.93450551689472 32.5244260087029 163.72198720391836 H 0.0 **** 0.06
20958 H 61.6083376011847 30.928687803130657 164.12731388409745 H 0.0 **** 0.06
20959 H 62.57250614136839 32.08798120837369 163.1815154510447 H 0.0 **** 0.06
20960 H 61.15411912092216 31.302484770976918 162.446871006185 H 0.0 **** 0.06
20961 C 145.242074444713 102.40497460898504 86.51331620921658 C 0.0 **** -0.24
20962 H 144.22991237605086 102.27984320021807 86.12790908439084 H 0.0 **** 0.06
20963 H 145.2109340278318 102.99546987041987 87.42948114992001 H 0.0 **** 0.06
20964 H 145.85257265083882 102.91660052236094 85.77034150013242 H 0.0 **** 0.06
20965 H 145.6728212101462 101.42562244235381 86.72596414423393 H 0.0 **** 0.06
20966 C 141.94625195258038 244.44685266350024 56.95367843082451 C 0.0 **** -0.24
20967 H 142.62100900701267 244.66446978798314 56.12541743378915 H 0.0 **** 0.06
20968 H 140.9486471056512 244.81450080682606 56.71610535012678 H 0.0 **** 0.06
20969 H 142.3093702496187 244.9372002039199 57.85643917040713 H 0.0 **** 0.06
20970 H 141.90774949578747 243.36958763551291 57.11637198554698 H 0.0 **** 0.06
20971 C 31.12542748588089 40.247375216844375 8.129049278935128 C 0.0 **** -0.24
20972 H 32.110070641556646 39.79362424173159 8.237014400850342 H 0.0 **** 0.06
20973 H 30.630408321266245 39.83727494617936 7.2487184520578865 H 0.0 **** 0.06
20974 H 31.23281961631865 41.32657882091691 8.015307947241666 H 0.0 **** 0.06
20975 H 30.527853346776965 40.033593989701004 9.014687068885678 H 0.0 **** 0.06
20976 C 104.08319800139043 135.3084231781848 61.908413986432805 C 0.0 **** -0.24
20977 H 104.02733321937754 136.34367599265664 62.24376946620737 H 0.0 **** 0.06
20978 H 103.46149854339959 134.68541632106988 62.551405284048826 H 0.0 **** 0.06
20979 H 105.11639992597497 134.96586600621742 61.95893060959662 H 0.0 **** 0.06
20980 H 103.7277312962567 135.24003342322337 60.88106165335725 H 0.0 **** 0.06
20981 C 167.19282506692346 43.76752386890878 79.34540811651163 C 0.0 **** -0.24
20982 H 166.60506008995696 42.849909499377944 79.30988663009728 H 0.0 **** 0.06
20983 H 167.35747352477532 44.13283901439621 78.33153815310664 H 0.0 **** 0.06
20984 H 168.15262961348546 43.56552140646032 79.82046474764184 H 0.0 **** 0.06
20985 H 166.6538584420625 44.52134525758174 79.92050278140704 H 0.0 **** 0.06
20986 C 81.27564958890935 27.408417121217454 21.852326272209766 C 0.0 **** -0.24
20987 H 81.21188224285473 27.483248677446497 22.937956750020675 H 0.0 **** 0.06
20988 H 81.99618648839822 28.136414622630312 21.480750203421294 H 0.0 **** 0.06
20989 H 80.2966991029081 27.608840466268703 21.41664863912446 H 0.0 **** 0.06
20990 H 81.59718300010408 26.404112664649517 21.57581334911127 H 0.0 **** 0.06
20991 C 111.46670759811084 36.836016838740704 171.4627305871025 C 0.0 **** -0.24
20992 H 111.17855808868845 37.28955667047474 172.41112135624542 H 0.0 **** 0.06
20993 H 110.67049291519504 36.17388593386002 171.1207460487046 H 0.0 **** 0.06
20994 H 112.38339682227283 36.262427294967935 171.5991104569171 H 0.0 **** 0.06
20995 H 111.63281950388713 37.617336189529595 170.72162231699068 H 0.0 **** 0.06
20996 C 76.06920451785012 190.1046259921219 79.67117603994504 C 0.0 **** -0.24
20997 H 75.27571481071067 190.66246758783063 79.17472926562536 H 0.0 **** 0.06
20998 H 75.77465115056782 189.05970975042473 79.76633867167718 H 0.0 **** 0.06
20999 H 76.24269797028393 190.5254020839746 80.66189046753925 H 0.0 **** 0.06
21000 H 76.98402338008381 190.1723308369811 79.08272037553311 H 0.0 **** 0.06
21001 C 232.299638738582 34.61606277302678 176.00112173420735 C 0.0 **** -0.24
21002 H 232.82733006939762 33.73345871382878 176.36434276269833 H 0.0 **** 0.06
21003 H 232.07992895070828 34.4961519381265 174.94011298181937 H 0.0 **** 0.06
21004 H 232.92405389846283 35.497498417243605 176.1458472641472 H 0.0 **** 0.06
21005 H 231.36808965064617 34.73485209284098 176.554378421648 H 0.0 **** 0.06
21006 C 10.095953360470418 12.186582638865303 119.91151265514918 C 0.0 **** -0.24
21007 H 11.0579049993909 12.378201950110025 120.38657859754116 H 0.0 **** 0.06
21008 H 10.256040343515394 11.670089436390668 118.96442580009366 H 0.0 **** 0.06
21009 H 9.586300830391878 13.132770347917614 119.72733693740284 H 0.0 **** 0.06
21010 H 9.48433790045938 11.566225804464267 120.56559023679398 H 0.0 **** 0.06
21011 C 107.97685303484914 167.43347167733836 98.18380816687724 C 0.0 **** -0.24
21012 H 107.53000949168202 166.66213342002513 97.5573892181146 H 0.0 **** 0.06
21013 H 108.49310736467658 168.15901344587976 97.55503859078212 H 0.0 **** 0.06
21014 H 108.68915927843159 166.9751770890301 98.87070078276903 H 0.0 **** 0.06
21015 H 107.19611972211385 167.93680113652383 98.75396210887189 H 0.0 **** 0.06
21016 C 98.93690098393128 93.01055096703891 59.56351057514627 C 0.0 **** -0.24
21017 H 99.36005253066995 92.79458026781754 58.58236685633091 H 0.0 **** 0.06
21018 H 98.57917957914322 94.04060479619162 59.585169008273795 H 0.0 **** 0.06
21019 H 99.70262683146811 92.87653654154133 60.32745077389163 H 0.0 **** 0.06
21020 H 98.1061308595099 92.33279242025134 59.758338488312205 H 0.0 **** 0.06
21021 C 92.57922564466614 89.77210950279334 120.84874848381995 C 0.0 **** -0.24
21022 H 92.74458829376846 90.72790241813058 121.34600562734258 H 0.0 **** 0.06
21023 H 93.44047365785818 89.1237251548734 121.01335157406737 H 0.0 **** 0.06
21024 H 92.4466643704219 89.93751606764945 119.78070835256887 H 0.0 **** 0.06
21025 H 91.68640238145679 89.30025563221588 121.25802236104835 H 0.0 **** 0.06
21026 C 170.73030711057817 0.3072442219838365 57.59939556227698 C 0.0 **** -0.24
21027 H 171.10127482137753 1.2603075279583607 57.22377360998689 H 0.0 **** 0.06
21028 H 169.96585967445196 0.4878236935919915 58.355470126124544 H 0.0 **** 0.06
21029 H 171.55324224822832 -0.25512562084364276 58.041553335872436 H 0.0 **** 0.06
21030 H 170.29985832297652 -0.26408662391909843 56.77688448267827 H 0.0 **** 0.06
21031 C 172.6273485145398 168.42510182320174 149.61532569326988 C 0.0 **** -0.24
21032 H 172.75967517209847 168.03516137163174 148.6064388501093 H 0.0 **** 0.06
21033 H 173.17082607002635 169.36601313081627 149.7141722906948 H 0.0 **** 0.06
21034 H 173.01409158935303 167.7052810855713 150.3367509973991 H 0.0 **** 0.06
21035 H 171.5680482727702 168.59564844176253 149.80318042986323 H 0.0 **** 0.06
21036 C 174.5455735165671 196.71524061715425 207.84474871198893 C 0.0 **** -0.24
21037 H 173.837489743945 196.88522868354053 208.65551501160644 H 0.0 **** 0.06
21038 H 174.01617287396482 196.3222510152905 206.97637108207007 H 0.0 **** 0.06
21039 H 175.3004679949026 195.99698256111066 208.16677242815678 H 0.0 **** 0.06
21040 H 175.02865093738555 197.65539772570799 207.58107585989472 H 0.0 **** 0.06
21041 C 13.808087300631627 82.69936170392268 38.24024999381767 C 0.0 **** -0.24
21042 H 14.373866770345899 82.8000842436216 37.313719294584956 H 0.0 **** 0.06
21043 H 14.369569501486112 83.15029106916157 39.05869853722136 H 0.0 **** 0.06
21044 H 13.64007325630665 81.64392452968764 38.4511082564983 H 0.0 **** 0.06
21045 H 12.848878847169075 83.20612342122732 38.13543934786853 H 0.0 **** 0.06
21046 C 85.74509834367717 105.40227580323076 55.64547986601025 C 0.0 **** -0.24
21047 H 86.1281407487717 104.72983668819441 56.4125722424329 H 0.0 **** 0.06
21048 H 86.15599654496629 105.11934991931389 54.676156295140515 H 0.0 **** 0.06
21049 H 86.03992796292815 106.42556061025974 55.88063360371501 H 0.0 **** 0.06
21050 H 84.65827411794547 105.33568523722116 55.6132253484501 H 0.0 **** 0.06
21051 C 98.22170221077036 187.96327204696487 7.2823375635702945 C 0.0 **** -0.24
21052 H 98.02924812036875 187.4443086428734 8.221641019707363 H 0.0 **** 0.06
21053 H 97.49866108126434 188.76881321305243 7.1575837439130225 H 0.0 **** 0.06
21054 H 98.13029015287515 187.26052610063866 6.454064335082336 H 0.0 **** 0.06
21055 H 99.22940670983309 188.37844119794005 7.2972300866418465 H 0.0 **** 0.06
21056 C 152.11269529568756 240.61433359696082 139.53418070102 C 0.0 **** -0.24
21057 H 151.17034989833036 240.6988664585976 140.075888114071 H 0.0 **** 0.06
21058 H 152.04004066615306 241.160432981648 138.5933500353913 H 0.0 **** 0.06
21059 H 152.3221346818787 239.56479914902403 139.33032255452267 H 0.0 **** 0.06
21060 H 152.9174612036058 241.03500402625488 140.1366703586774 H 0.0 **** 0.06
21061 C 225.21832075428642 242.98824377413558 95.5325807320423 C 0.0 **** -0.24
21062 H 224.43593447290905 242.4692196297995 96.08556916379322 H 0.0 **** 0.06
21063 H 224.95545016511642 244.0419511427615 95.4358470249654 H 0.0 **** 0.06
21064 H 225.3184063023177 242.54523687058781 94.54237452994843 H 0.0 **** 0.06
21065 H 226.16324871534295 242.89799493798705 96.06850784135108 H 0.0 **** 0.06
21066 C 109.06365393098122 155.55337804171913 21.739003553674678 C 0.0 **** -0.24
21067 H 109.7166928779665 156.17880539706616 21.129808730862777 H 0.0 **** 0.06
21068 H 108.15396861070906 156.10431499914517 21.977386971646382 H 0.0 **** 0.06
21069 H 109.57705823018514 155.28316534592767 22.661490783164737 H 0.0 **** 0.06
21070 H 108.80753365980851 154.64997358866952 21.187111940569622 H 0.0 **** 0.06
21071 C 106.48010285145594 92.0588045200503 213.39803452875154 C 0.0 **** -0.24
21072 H 105.92913829200936 91.36984432144828 214.03844492097954 H 0.0 **** 0.06
21073 H 106.92549362686242 91.50770939882298 212.56927231821723 H 0.0 **** 0.06
21074 H 107.26637011643402 92.54313479405886 213.9769520886419 H 0.0 **** 0.06
21075 H 105.79865718130725 92.81515924199019 213.00766302700328 H 0.0 **** 0.06
21076 C 200.09518137067482 17.385982575157612 23.47497816681259 C 0.0 **** -0.24
21077 H 200.60995445418257 17.095969365810987 22.55881137880941 H 0.0 **** 0.06
21078 H 199.78491397302577 16.490722101789316 24.015292345190076 H 0.0 **** 0.06
21079 H 199.2185362752461 17.9836848522136 23.22609881902912 H 0.0 **** 0.06
21080 H 200.76919950018979 17.97238067939898 24.099403817446472 H 0.0 **** 0.06
21081 C 94.45843256629365 20.99126969007743 184.9442337222906 C 0.0 **** -0.24
21082 H 94.74783986382323 21.37249491260775 183.9645422797885 H 0.0 **** 0.06
21083 H 94.2815055981597 19.918139607522534 184.87944766486146 H 0.0 **** 0.06
21084 H 93.54731288429969 21.491229433769163 185.2736358378163 H 0.0 **** 0.06
21085 H 95.25753503795536 21.18614449557505 185.65975913977158 H 0.0 **** 0.06
21086 C 63.809156097252014 185.36944188557328 129.5302457378738 C 0.0 **** -0.24
21087 H 62.78566328539759 185.23531749115168 129.8801409772041 H 0.0 **** 0.06
21088 H 63.81715899082167 186.05353790915268 128.6816403207039 H 0.0 **** 0.06
21089 H 64.21718036168556 184.40582804202486 129.2245168822956 H 0.0 **** 0.06
21090 H 64.41710447316225 185.78188751183535 130.3352637149321 H 0.0 **** 0.06
21091 C 200.24673756322892 177.17456634833172 61.33454710854434 C 0.0 **** -0.24
21092 H 200.54508154109465 177.5183486551539 60.345170968971075 H 0.0 **** 0.06
21093 H 201.1179824727984 176.78971529911234 61.864353246936474 H 0.0 **** 0.06
21094 H 199.50326403919973 176.3825604014465 61.23550022517813 H 0.0 **** 0.06
21095 H 199.81819905562014 178.006250023316 61.8942564852118 H 0.0 **** 0.06
21096 C 44.73236265056252 228.39807617745322 132.36437026713702 C 0.0 **** -0.24
21097 H 45.74968208064588 228.11136533739395 132.63062510699723 H 0.0 **** 0.06
21098 H 44.36529679434578 229.13669966206754 133.07779481511778 H 0.0 **** 0.06
21099 H 44.08902259429033 227.51906803697213 132.3882621146356 H 0.0 **** 0.06
21100 H 44.72647210872634 228.82577352110167 131.3620605107431 H 0.0 **** 0.06
21101 C 111.15276180324963 1.8140707218380214 234.14393894805312 C 0.0 **** -0.24
21102 H 111.28997466212655 2.57696876763427 233.37823681094935 H 0.0 **** 0.06
21103 H 110.59237100328062 2.23579330214028 234.9787992915795 H 0.0 **** 0.06
21104 H 112.12677652196311 1.4729477383650362 234.4951070128234 H 0.0 **** 0.06
21105 H 110.60183628343344 0.9727568889090037 233.7247186418045 H 0.0 **** 0.06
21106 C 228.82062960197948 63.487760512134486 220.69704572687164 C 0.0 **** -0.24
21107 H 228.32686662386735 62.76637678001222 221.3483399800598 H 0.0 **** 0.06
21108 H 229.37112644063856 62.95745196223848 219.9200807082977 H 0.0 **** 0.06
21109 H 229.5111411895417 64.09303741183848 221.28481710796228 H 0.0 **** 0.06
21110 H 228.07295825242755 64.13329787669497 220.23695701113263 H 0.0 **** 0.06
21111 C 24.4414983723142 245.80483004731457 196.72890092806222 C 0.0 **** -0.24
21112 H 24.68844451389262 246.36158707106364 197.6332547281158 H 0.0 **** 0.06
21113 H 24.112019922908374 244.8013288027264 196.99840932040507 H 0.0 **** 0.06
21114 H 25.3230579203791 245.73933769581055 196.09169760262301 H 0.0 **** 0.06
21115 H 23.643486278844676 246.3181931089042 196.1938853954302 H 0.0 **** 0.06
21116 C 224.4681281334211 248.89732209408618 162.29164660014752 C 0.0 **** -0.24
21117 H 223.74012442421633 248.124839962009 162.0415755397125 H 0.0 **** 0.06
21118 H 224.64052591112977 249.52968799832175 161.41973952065356 H 0.0 **** 0.06
21119 H 225.4048337600739 248.42887769534406 162.59256349329198 H 0.0 **** 0.06
21120 H 224.08508911469121 249.5048087427141 163.11166589978606 H 0.0 **** 0.06
21121 C 15.793908315348702 198.80536648031142 21.006565575574058 C 0.0 **** -0.24
21122 H 15.315663276561338 199.43146027278243 20.25316938693763 H 0.0 **** 0.06
21123 H 15.723528472924642 199.29009316971855 21.98076488368858 H 0.0 **** 0.06
21124 H 16.84245068015818 198.66016785030882 20.746756346832257 H 0.0 **** 0.06
21125 H 15.292819723028899 197.83812375401072 21.04560787059748 H 0.0 **** 0.06
21126 C 77.59012001955898 6.092131226610306 164.87750340733697 C 0.0 **** -0.24
21127 H 77.91535371607316 7.090956476104978 164.58710242704097 H 0.0 **** 0.06
21128 H 77.26418292924205 5.5437887513343185 163.99308432011483 H 0.0 **** 0.06
21129 H 76.76113229981016 6.17154254338638 165.58169570003355 H 0.0 **** 0.06
21130 H 78.41783594005005 5.563362707407663 165.34904319034936 H 0.0 **** 0.06
21131 C 96.04842005031384 201.94805299582845 34.07851989045592 C 0.0 **** -0.24
21132 H 95.23862047400772 201.9731071099389 33.34874080389345 H 0.0 **** 0.06
21133 H 95.81016150794204 202.61494971517394 34.90766536051002 H 0.0 **** 0.06
21134 H 96.97425424138962 202.27274488563143 33.604833511739386 H 0.0 **** 0.06
21135 H 96.1682487847238 200.9318283097586 34.4525426435131 H 0.0 **** 0.06
21136 C 101.24946037456232 162.531612147218 24.2827645230046 C 0.0 **** -0.24
21137 H 101.13156672355791 163.5677550787694 23.965541444260893 H 0.0 **** 0.06
21138 H 100.50592026104567 162.2989233010949 25.04490202180098 H 0.0 **** 0.06
21139 H 102.24910869395993 162.38940252412357 24.692892827328407 H 0.0 **** 0.06
21140 H 101.11132349809364 161.87200819030542 23.42620431494943 H 0.0 **** 0.06
21141 C 241.03641873753796 117.80579892784897 30.2766768940147 C 0.0 **** -0.24
21142 H 240.4454144819815 116.98288058534018 30.6805741027743 H 0.0 **** 0.06
21143 H 240.67246806836954 118.05930014381568 29.28129877133624 H 0.0 **** 0.06
21144 H 242.08224413520603 117.50465992352233 30.215667818830923 H 0.0 **** 0.06
21145 H 240.94494840368657 118.67342292430934 30.929373867030876 H 0.0 **** 0.06
21146 C 214.04006294823142 63.79306409174265 225.0113654415555 C 0.0 **** -0.24
21147 H 213.55177864773194 64.76261573903483 225.1085333999431 H 0.0 **** 0.06
21148 H 215.0428069684244 63.84860860390748 225.4364134592298 H 0.0 **** 0.06
21149 H 214.105775321404 63.523943746862074 223.95796823425118 H 0.0 **** 0.06
21150 H 213.46057386259508 63.039518242905444 225.5441680472976 H 0.0 **** 0.06
21151 C 212.28986816542178 89.28805126669826 64.89936214310467 C 0.0 **** -0.24
21152 H 211.49934747151835 89.2956384902713 65.65026362979961 H 0.0 **** 0.06
21153 H 212.09372223686645 88.49771800821983 64.1737998106272 H 0.0 **** 0.06
21154 H 213.24905910054238 89.10787174629729 65.3844277639472 H 0.0 **** 0.06
21155 H 212.3163799317114 90.25153403882251 64.38982936867859 H 0.0 **** 0.06
21156 C 115.90970709247972 199.454846403879 127.07182656355678 C 0.0 **** -0.24
21157 H 115.04276464996644 199.83088136949397 126.52718164259733 H 0.0 **** 0.06
21158 H 116.69706215220819 199.19441752787026 126.36430314922202 H 0.0 **** 0.06
21159 H 115.62571801737664 198.57108770282326 127.64236869501735 H 0.0 **** 0.06
21160 H 116.27238944200337 200.22499735153883 127.75235400397244 H 0.0 **** 0.06
21161 C 107.53353129804103 121.03890286264155 82.77692503220743 C 0.0 **** -0.24
21162 H 106.81146790218938 121.85368042174025 82.80877676056932 H 0.0 **** 0.06
21163 H 107.39684855792044 120.46809298468341 81.85837591421938 H 0.0 **** 0.06
21164 H 107.38363408917112 120.38599999977322 83.63686122102524 H 0.0 **** 0.06
21165 H 108.5438411564725 121.44828166533424 82.80352510539919 H 0.0 **** 0.06
21166 C 87.14565616524408 134.7651746516088 10.047560979493412 C 0.0 **** -0.24
21167 H 87.64100169817814 134.68542220008447 11.01509026379459 H 0.0 **** 0.06
21168 H 86.18280774956168 134.25420203172885 10.08965013619212 H 0.0 **** 0.06
21169 H 87.7689930745488 134.3037278181173 9.281482335420051 H 0.0 **** 0.06
21170 H 86.98922460851665 135.8160790961964 9.804212288655364 H 0.0 **** 0.06
21171 C 215.45843788396093 107.74012398923824 218.72750963038857 C 0.0 **** -0.24
21172 H 214.94812237159215 107.98434398076725 219.65892481049295 H 0.0 **** 0.06
21173 H 216.4252926011153 108.24209712207809 218.69973385748932 H 0.0 **** 0.06
21174 H 214.8523278332258 108.07124669974277 217.8839760326586 H 0.0 **** 0.06
21175 H 215.60697536392172 106.66101089379467 218.66656593198067 H 0.0 **** 0.06
21176 C 227.02571450297177 31.656670343383865 103.95744436565158 C 0.0 **** -0.24
21177 H 227.92029778584947 31.092176501991077 104.22025422295488 H 0.0 **** 0.06
21178 H 226.87312312185855 32.45536598649065 104.6825869024727 H 0.0 **** 0.06
21179 H 226.1631053028364 30.98986576567691 103.96332640805579 H 0.0 **** 0.06
21180 H 227.14560127992922 32.08527500711455 102.9629159533728 H 0.0 **** 0.06
21181 C 60.06546198767737 233.07882583445877 106.8583638994022 C 0.0 **** -0.24
21182 H 60.55354108032901 232.20424096206796 107.28998952675673 H 0.0 **** 0.06
21183 H 60.39984216551983 233.21012137028302 105.82922496383367 H 0.0 **** 0.06
21184 H 60.324508434336764 233.9627833100399 107.44069686598874 H 0.0 **** 0.06
21185 H 58.98507439388098 232.93605775177613 106.87412741782472 H 0.0 **** 0.06
21186 C 38.92590702330125 51.867305906319785 118.92229395777991 C 0.0 **** -0.24
21187 H 38.64322624655634 52.87105114433447 119.23811611574754 H 0.0 **** 0.06
21188 H 38.03824675514993 51.23522340567746 118.88508458942314 H 0.0 **** 0.06
21189 H 39.63882863875736 51.44978565021884 119.63238139068866 H 0.0 **** 0.06
21190 H 39.38113109005842 51.91234434359052 117.93287990987497 H 0.0 **** 0.06
21191 C 34.75875487647974 7.190301262542391 201.7236165048222 C 0.0 **** -0.24
21192 H 35.23875859158599 8.058430364851205 201.27281182847153 H 0.0 **** 0.06
21193 H 35.23161327293437 6.969806707991282 202.6804297851931 H 0.0 **** 0.06
21194 H 34.86368227095912 6.332049207223136 201.0596389268236 H 0.0 **** 0.06
21195 H 33.70103693693076 7.401495143962052 201.88029602508374 H 0.0 **** 0.06
21196 C 103.54842587014721 34.77130161112785 79.93301714800165 C 0.0 **** -0.24
21197 H 102.75973085377882 34.370682312548496 79.29649463161911 H 0.0 **** 0.06
21198 H 103.86923310320569 34.00575342660346 80.63979523868784 H 0.0 **** 0.06
21199 H 103.1714712135581 35.63623220327386 80.47933283708005 H 0.0 **** 0.06
21200 H 104.3949808267773 35.07299553087867 79.31508263122592 H 0.0 **** 0.06
21201 C 155.00680645258907 60.58608716518302 154.1719875452087 C 0.0 **** -0.24
21202 H 154.69824511813837 60.861905656011885 153.16335151709274 H 0.0 **** 0.06
21203 H 154.74776120737963 61.388423058219644 154.86302896762052 H 0.0 **** 0.06
21204 H 156.08558436798404 60.425052853193876 154.1895017438444 H 0.0 **** 0.06
21205 H 154.49746394993093 59.669837247639634 154.4698547445028 H 0.0 **** 0.06
21206 C 75.93435772810395 4.1812116885783155 145.2391797179613 C 0.0 **** -0.24
21207 H 75.91855183814243 3.999441950684087 144.16506636517272 H 0.0 **** 0.06
21208 H 75.0770688667013 3.691254035954586 145.70354369210102 H 0.0 **** 0.06
21209 H 75.88530657275459 5.2534056398214375 145.42679281821194 H 0.0 **** 0.06
21210 H 76.85505557035066 3.7791708065844603 145.66250959606958 H 0.0 **** 0.06
21211 C 208.98278390736237 96.60523144485501 49.099343060486575 C 0.0 **** -0.24
21212 H 209.38720264992747 95.99971801463562 48.28764142511304 H 0.0 **** 0.06
21213 H 208.04132245981663 96.17420526753313 49.43893007433202 H 0.0 **** 0.06
21214 H 208.81117586033193 97.6214060775651 48.74320352209408 H 0.0 **** 0.06
21215 H 209.69365149445213 96.62530325367015 49.92536119865041 H 0.0 **** 0.06
21216 C 242.24354442998344 54.1193636807935 78.34833407601761 C 0.0 **** -0.24
21217 H 242.42513378227204 54.57375813997098 77.37446573307827 H 0.0 **** 0.06
21218 H 243.1704424548814 53.68828785118953 78.72689880143383 H 0.0 **** 0.06
21219 H 241.49181283733043 53.335449854259394 78.24795325234473 H 0.0 **** 0.06
21220 H 241.88494074591438 54.87966742880988 79.04167322139926 H 0.0 **** 0.06
21221 C 193.96344061132453 1.6170257078419752 214.87622498690314 C 0.0 **** -0.24
21222 H 194.32098999642977 0.7720121144883194 214.28867496895225 H 0.0 **** 0.06
21223 H 194.79428769850153 2.291728282402545 215.08444873748982 H 0.0 **** 0.06
21224 H 193.5441309604136 1.2562675257077274 215.81466172179586 H 0.0 **** 0.06
21225 H 193.19429051490135 2.1495711732274856 214.31543622017455 H 0.0 **** 0.06
21226 C 119.25843285509458 81.08502685584756 40.53346279174556 C 0.0 **** -0.24
21227 H 118.62776849033881 80.56154443438777 39.81520714211993 H 0.0 **** 0.06
21228 H 119.40319561601098 82.11554361555446 40.206538432599444 H 0.0 **** 0.06
21229 H 120.2240728552868 80.58568246179237 40.60038900115009 H 0.0 **** 0.06
21230 H 118.776959623636 81.07957017837987 41.51166232513927 H 0.0 **** 0.06
21231 C 38.25893759935913 7.1478938900934 218.64175171936083 C 0.0 **** -0.24
21232 H 38.72781606236613 7.842814198896036 219.33760250032103 H 0.0 **** 0.06
21233 H 38.54168751552771 6.1275135089949515 218.9005526695527 H 0.0 **** 0.06
21234 H 38.589625302800215 7.370326430143649 217.62747810149423 H 0.0 **** 0.06
21235 H 37.17530499935049 7.2506231251950055 218.70095191869623 H 0.0 **** 0.06
21236 C 118.64421016066686 9.239330950585611 222.16344444935342 C 0.0 **** -0.24
21237 H 118.8296538684373 8.830796784921489 221.1698192481625 H 0.0 **** 0.06
21238 H 119.2238005718674 8.681319505546767 222.8992832618056 H 0.0 **** 0.06
21239 H 117.58313253211628 9.155317842467241 222.39866484507377 H 0.0 **** 0.06
21240 H 118.9398296278359 10.288082425303898 222.18725708003905 H 0.0 **** 0.06
21241 C 73.47832222019764 64.34897046952275 46.01636829816965 C 0.0 **** -0.24
21242 H 74.29632969960139 64.69480873619821 46.648887256769 H 0.0 **** 0.06
21243 H 72.59136991344371 64.1836129165788 46.62842226596281 H 0.0 **** 0.06
21244 H 73.76410370963208 63.41694685654588 45.53030093701685 H 0.0 **** 0.06
21245 H 73.2616160583527 65.10259695699301 45.25866378129544 H 0.0 **** 0.06
21246 C 82.91654218131114 162.12141269355178 60.490746549280374 C 0.0 **** -0.24
21247 H 82.6628201664501 163.1422775471897 60.777871378204935 H 0.0 **** 0.06
21248 H 83.96179545010699 162.0801886965981 60.18176957448145 H 0.0 **** 0.06
21249 H 82.27978145671753 161.80812819042276 59.663615262598285 H 0.0 **** 0.06
21250 H 82.76170096599691 161.45613220182767 61.34064515629504 H 0.0 **** 0.06
21251 C 73.76651922021472 239.72411688233012 104.71653798139087 C 0.0 **** -0.24
21252 H 73.76241514980995 239.76150362421797 105.80643337486657 H 0.0 **** 0.06
21253 H 74.71259145117261 240.11838140369315 104.34366883015448 H 0.0 **** 0.06
21254 H 72.94374273432433 240.32447166605937 104.32890729051007 H 0.0 **** 0.06
21255 H 73.64914113225379 238.69122488217846 104.38853025159085 H 0.0 **** 0.06
21256 C 132.1565168885167 46.32707323345764 247.5833792607898 C 0.0 **** -0.24
21257 H 132.22577771641267 47.32332433635844 248.0199159082216 H 0.0 **** 0.06
21258 H 132.06610130655534 45.587202265251534 248.3789680655829 H 0.0 **** 0.06
21259 H 133.05305669126392 46.12427945639129 246.997624504685 H 0.0 **** 0.06
21260 H 131.28114471483903 46.27507132250092 246.93630899895396 H 0.0 **** 0.06
21261 C 95.06411420597385 166.8265211459102 130.73149568611737 C 0.0 **** -0.24
21262 H 95.07695543171684 166.76661434069655 129.64246682397226 H 0.0 **** 0.06
21263 H 94.97882330612703 165.82239104164108 131.14824114334766 H 0.0 **** 0.06
21264 H 94.2135692025607 167.42723946670137 131.051527327872 H 0.0 **** 0.06
21265 H 95.98732544257368 167.28747632476467 131.08009127899732 H 0.0 **** 0.06
21266 C 69.44052170558498 5.856469767874515 156.39873065660845 C 0.0 **** -0.24
21267 H 70.20240172215122 5.642986393572741 155.64757203190476 H 0.0 **** 0.06
21268 H 69.39920493726223 6.930811782697077 156.57757340023602 H 0.0 **** 0.06
21269 H 69.69075064945471 5.342856680616137 157.3262712908001 H 0.0 **** 0.06
21270 H 68.47164472563173 5.5100828302499565 156.040574202936 H 0.0 **** 0.06
21271 C 243.44793063251288 203.12699675711332 75.44537793646165 C 0.0 **** -0.24
21272 H 243.88535723624818 204.12484818213665 75.47484091621172 H 0.0 **** 0.06
21273 H 243.01594807702224 202.89143747739712 76.4181571865528 H 0.0 **** 0.06
21274 H 244.22255939943204 202.39800523785328 75.20545458098027 H 0.0 **** 0.06
21275 H 242.66918268192993 203.09408128898076 74.68336955638196 H 0.0 **** 0.06
21276 C 43.36678978697722 6.096196171779823 52.02807460568735 C 0.0 **** -0.24
21277 H 42.92781920461253 6.289701143656231 51.04946680891324 H 0.0 **** 0.06
21278 H 44.052165211241075 6.905593904374143 52.284352640444695 H 0.0 **** 0.06
21279 H 43.91252469789255 5.153533181581025 52.001931663276636 H 0.0 **** 0.06
21280 H 42.57662133291555 6.039125072893967 52.77627529157188 H 0.0 **** 0.06
21281 C 135.409895874804 151.74577580245025 154.31795974547842 C 0.0 **** -0.24
21282 H 136.47482649907514 151.65322481338282 154.52816830044196 H 0.0 **** 0.06
21283 H 134.97711955626085 150.7527571773673 154.1946015587609 H 0.0 **** 0.06
21284 H 135.26954222994098 152.31934670469508 153.40170113318783 H 0.0 **** 0.06
21285 H 134.91843118025542 152.25579323956913 155.14638731345983 H 0.0 **** 0.06
21286 C 108.17063352489163 127.80282325465927 144.96206200489218 C 0.0 **** -0.24
21287 H 108.47449587081931 127.07481736885094 145.71324351382603 H 0.0 **** 0.06
21288 H 108.68362418341957 127.59271967696023 144.02343660459792 H 0.0 **** 0.06
21289 H 108.42991932745753 128.80544765648173 145.3018792338976 H 0.0 **** 0.06
21290 H 107.09319029621065 127.73929478979372 144.8091182432991 H 0.0 **** 0.06
21291 C 84.4224394332063 241.7852683336095 20.23425096590117 C 0.0 **** -0.24
21292 H 83.89587502693388 240.86749878065012 19.97281351451244 H 0.0 **** 0.06
21293 H 85.49447602131892 241.59118228502268 20.2722211013253 H 0.0 **** 0.06
21294 H 84.08116623600944 242.13405870675126 21.209302480841046 H 0.0 **** 0.06
21295 H 84.21731776253881 242.54850376903846 19.483724925489014 H 0.0 **** 0.06
21296 C 184.13638059374145 60.459394488524254 38.697782875790196 C 0.0 **** -0.24
21297 H 183.4464603793066 60.000688620748264 37.98827346062434 H 0.0 **** 0.06
21298 H 184.06960900395364 61.54516071706138 38.61817234744211 H 0.0 **** 0.06
21299 H 185.15338525357208 60.13989322564717 38.4728272733487 H 0.0 **** 0.06
21300 H 183.87290464047854 60.1523399530802 39.70992441908399 H 0.0 **** 0.06
21301 C 179.19077713698746 20.230670116238585 210.19065384423604 C 0.0 **** -0.24
21302 H 178.3833134911867 20.34868937828105 209.46782365218525 H 0.0 **** 0.06
21303 H 178.78441876323075 19.861522145213257 211.1328169012627 H 0.0 **** 0.06
21304 H 179.6740441048682 21.19373236870733 210.35579531896303 H 0.0 **** 0.06
21305 H 179.92133218866422 19.5187365727528 209.8061795045332 H 0.0 **** 0.06
21306 C 129.3050339614382 176.51510517825602 47.66265788618111 C 0.0 **** -0.24
21307 H 129.34428565367242 176.97518780574336 48.64985383754109 H 0.0 **** 0.06
21308 H 130.28581027424835 176.10829585421587 47.4133516860112 H 0.0 **** 0.06
21309 H 129.02364759521075 177.26532862488753 46.92371874016527 H 0.0 **** 0.06
21310 H 128.56752961287097 175.71282791125725 47.66550157483195 H 0.0 **** 0.06
21311 C 220.00204584006127 184.96492367273027 121.39985244303105 C 0.0 **** -0.24
21312 H 219.04463978357558 184.64638179577412 121.81225671721518 H 0.0 **** 0.06
21313 H 220.60336427557098 185.4180591392914 122.18872566995464 H 0.0 **** 0.06
21314 H 219.8314839576416 185.69442228241542 120.60855857536885 H 0.0 **** 0.06
21315 H 220.52708417992352 184.1012656903972 120.99255501603281 H 0.0 **** 0.06
21316 C 21.18710234528669 224.34899697249443 225.60788100969015 C 0.0 **** -0.24
21317 H 20.979097093187136 224.8446260950413 226.55648375238766 H 0.0 **** 0.06
21318 H 22.203085405272816 224.5857838973546 225.2901689481087 H 0.0 **** 0.06
21319 H 20.480849159694856 224.69507428299053 224.854088936877 H 0.0 **** 0.06
21320 H 21.087508543653314 223.27072878185785 225.73142189470147 H 0.0 **** 0.06
21321 C 200.83700883278135 81.38394414810793 25.124841509103277 C 0.0 **** -0.24
21322 H 201.52858900202185 80.82817779587606 24.491654964617084 H 0.0 **** 0.06
21323 H 201.13439629716964 81.27607112749007 26.168458626301685 H 0.0 **** 0.06
21324 H 199.82883605188255 80.99340273293146 24.991011005479237 H 0.0 **** 0.06
21325 H 200.85920711699728 82.43803163280751 24.84806112543177 H 0.0 **** 0.06
21326 C 227.3399482523016 65.93971704066198 36.2515261599585 C 0.0 **** -0.24
21327 H 227.33765614284007 66.71467863774774 35.48473880838898 H 0.0 **** 0.06
21328 H 227.9849022012707 65.11883602671048 35.936068800564186 H 0.0 **** 0.06
21329 H 226.3250087270517 65.56946175846781 36.39694403174431 H 0.0 **** 0.06
21330 H 227.71286896196114 66.3554477940736 37.18772894606107 H 0.0 **** 0.06
21331 C 66.76084660717433 196.14022645107556 33.02695584324579 C 0.0 **** -0.24
21332 H 67.64274285232483 196.15631446145738 33.66840558481499 H 0.0 **** 0.06
21333 H 66.71385985877416 195.18804824408807 32.49704406586372 H 0.0 **** 0.06
21334 H 66.82208954982727 196.95515230922038 32.30583885243348 H 0.0 **** 0.06
21335 H 65.86637972819639 196.26077289672926 33.63741642161702 H 0.0 **** 0.06
21336 C 14.887902383694424 153.47667197998936 122.12635294504187 C 0.0 **** -0.24
21337 H 13.942282233332307 154.00012123264875 122.2611897477909 H 0.0 **** 0.06
21338 H 14.73251616453338 152.60436753124407 121.49120678530315 H 0.0 **** 0.06
21339 H 15.268596684397195 153.15754846001266 123.09637232299147 H 0.0 **** 0.06
21340 H 15.609526857025003 154.14507532224698 121.65559539546229 H 0.0 **** 0.06
21341 C 59.84373161555598 154.14922608865584 185.9308135595956 C 0.0 **** -0.24
21342 H 58.88541932725454 153.67819591345807 186.1528984877788 H 0.0 **** 0.06
21343 H 60.03116945531892 154.94506762646822 186.65182387464336 H 0.0 **** 0.06
21344 H 59.81762364091466 154.56759199300902 184.92540324644835 H 0.0 **** 0.06
21345 H 60.63741584329446 153.40546253486724 185.99479545611334 H 0.0 **** 0.06
21346 C 130.0530981864217 165.1816004218327 141.46276466180734 C 0.0 **** -0.24
21347 H 129.51133683654345 166.01418593782023 141.01523080099713 H 0.0 **** 0.06
21348 H 130.9725396631239 165.00463929526467 140.9046744359978 H 0.0 **** 0.06
21349 H 129.43160664695458 164.28648197035528 141.43256869931045 H 0.0 **** 0.06
21350 H 130.2960782656934 165.42118744172015 142.49803675708915 H 0.0 **** 0.06
21351 C 170.90078029403057 213.71409759195822 145.61518556415862 C 0.0 **** -0.24
21352 H 170.87068188428657 212.67110581159054 145.3000367097706 H 0.0 **** 0.06
21353 H 171.7461020228558 213.86647525579838 146.28746586836223 H 0.0 **** 0.06
21354 H 169.9747927192479 213.96361430686457 146.13309867256135 H 0.0 **** 0.06
21355 H 171.0122418863438 214.35397875053553 144.74032673149796 H 0.0 **** 0.06
21356 C 35.391626978274076 133.66071941486695 32.49805860781021 C 0.0 **** -0.24
21357 H 34.996387131697446 133.68565831800169 33.51350387098701 H 0.0 **** 0.06
21358 H 35.76785444027419 132.6615046510007 32.27951955409563 H 0.0 **** 0.06
21359 H 36.20334422516591 134.38289482994296 32.405493178740656 H 0.0 **** 0.06
21360 H 34.59892211595876 133.91281986052252 31.793717827417453 H 0.0 **** 0.06
21361 C 188.26764594114158 91.37440486051864 110.02247704371047 C 0.0 **** -0.24
21362 H 187.24190139727943 91.42070419514957 109.65583269635115 H 0.0 **** 0.06
21363 H 188.39595407950316 90.47624427565626 110.62760361433058 H 0.0 **** 0.06
21364 H 188.47652390816293 92.25459062883326 110.62921880222538 H 0.0 **** 0.06
21365 H 188.95414246780138 91.34420043515414 109.17615099301659 H 0.0 **** 0.06
21366 C 182.0762889678486 147.01609110503304 85.46933148162131 C 0.0 **** -0.24
21367 H 182.0041306816675 146.2014720943067 86.18964156333558 H 0.0 **** 0.06
21368 H 181.8334245374656 147.958048894542 85.96143509216984 H 0.0 **** 0.06
21369 H 181.37523252077534 146.84197568091406 84.65266983057523 H 0.0 **** 0.06
21370 H 183.09045113609926 147.06252425617032 85.07403461001292 H 0.0 **** 0.06
21371 C 33.381573485977924 47.36705831974757 182.48252377915662 C 0.0 **** -0.24
21372 H 34.215851487742 47.91926243162425 182.05008487920412 H 0.0 **** 0.06
21373 H 32.749870291945115 46.978687450105625 181.68404979405787 H 0.0 **** 0.06
21374 H 32.79619954847034 48.03160683224854 183.11861984477304 H 0.0 **** 0.06
21375 H 33.764767870164135 46.53815339236381 183.07859362844215 H 0.0 **** 0.06
21376 C 66.26645858091402 96.98089719491114 81.95860630315104 C 0.0 **** -0.24
21377 H 65.8824451560142 96.15846222977393 82.56253675567854 H 0.0 **** 0.06
21378 H 65.44445875679841 97.64062917067804 81.68031404485768 H 0.0 **** 0.06
21379 H 66.7340368104885 96.58232522465929 81.05914171938184 H 0.0 **** 0.06
21380 H 67.00348468323315 97.5403009714868 82.53430718306709 H 0.0 **** 0.06
21381 C 118.38411434000497 153.64160457286388 229.72516798664202 C 0.0 **** -0.24
21382 H 118.54798111403483 153.94557749906517 228.69163148356108 H 0.0 **** 0.06
21383 H 117.47119166594564 154.10626943593465 230.09928606557395 H 0.0 **** 0.06
21384 H 119.22923692724922 153.95687063047745 230.3354315972889 H 0.0 **** 0.06
21385 H 118.28525228538817 152.55605825165298 229.77245509152033 H 0.0 **** 0.06
21386 C 202.16440746589774 73.50279550239347 173.3885923770912 C 0.0 **** -0.24
21387 H 202.28058364507137 74.24812161319852 174.17451898895112 H 0.0 **** 0.06
21388 H 201.50961055099216 72.70454085482825 173.73845962276056 H 0.0 **** 0.06
21389 H 203.1401079646618 73.08743769051861 173.1359008725837 H 0.0 **** 0.06
21390 H 201.72864172676506 73.97061998758883 172.50573506045336 H 0.0 **** 0.06
21391 C 238.86567507736316 1.2989299489355517 33.14983345849075 C 0.0 **** -0.24
21392 H 239.90862308077573 1.1888404916920194 33.446911466363616 H 0.0 **** 0.06
21393 H 238.2451585995208 0.6342573578837118 33.7508511088117 H 0.0 **** 0.06
21394 H 238.75996165998345 1.0405562839349187 32.09560373795975 H 0.0 **** 0.06
21395 H 238.55100626598954 2.3299934606222052 33.30525586734265 H 0.0 **** 0.06
21396 C 215.02329493005442 54.15900545152479 0.3325354712939941 C 0.0 **** -0.24
21397 H 215.55471778208124 54.04950933701343 -0.6128813274647484 H 0.0 **** 0.06
21398 H 215.71416116057628 53.9888621860905 1.158773147572731 H 0.0 **** 0.06
21399 H 214.21192625839808 53.43326980891136 0.3807144838486636 H 0.0 **** 0.06
21400 H 214.61293512427892 55.16715232864098 0.4035867878320687 H 0.0 **** 0.06
21401 C 70.79110338225209 22.110245457704337 134.50720133929238 C 0.0 **** -0.24
21402 H 70.50810994135986 21.420598117664582 133.7122108840004 H 0.0 **** 0.06
21403 H 70.79062745712045 23.1300749661535 134.12044931135375 H 0.0 **** 0.06
21404 H 71.7871048311705 21.85862206625083 134.86950554438067 H 0.0 **** 0.06
21405 H 70.07588353322026 22.03178079839026 135.32576375616634 H 0.0 **** 0.06
21406 C 53.85854781891288 88.19815208760684 153.83743782839937 C 0.0 **** -0.24
21407 H 53.78715938400637 88.46989797868727 152.78400798427558 H 0.0 **** 0.06
21408 H 53.72600220717669 87.12153666922828 153.94394824998332 H 0.0 **** 0.06
21409 H 53.08241788148507 88.71762298405 154.40006726561614 H 0.0 **** 0.06
21410 H 54.83794336666486 88.48430011230704 154.21972990220283 H 0.0 **** 0.06
21411 C 170.65040446380175 124.24745138416935 200.72037895869627 C 0.0 **** -0.24
21412 H 171.08822989510298 124.4546904614233 199.7440883142146 H 0.0 **** 0.06
21413 H 170.51882791106976 125.18319168427254 201.26494142885784 H 0.0 **** 0.06
21414 H 171.31400228932188 123.589380063238 201.28330226875622 H 0.0 **** 0.06
21415 H 169.6833356123978 123.76256003563924 200.58971611348437 H 0.0 **** 0.06
21416 C 34.44081025106797 212.42274164256537 49.856409325391056 C 0.0 **** -0.24
21417 H 33.485263633101226 212.722504504967 50.28670975079751 H 0.0 **** 0.06
21418 H 35.20137169121725 213.16069822374178 50.1119635298907 H 0.0 **** 0.06
21419 H 34.34669964167176 212.3586390123609 48.772040558755506 H 0.0 **** 0.06
21420 H 34.72923888160179 211.45031439105017 50.25529744611042 H 0.0 **** 0.06
21421 C 246.98633431644 105.76595745554806 132.71636870853473 C 0.0 **** -0.24
21422 H 247.0403343826611 104.8606182158498 133.32111859457737 H 0.0 **** 0.06
21423 H 247.96695188174715 105.97581868179083 132.28929023230484 H 0.0 **** 0.06
21424 H 246.6759412813517 106.60214667573501 133.34238173914756 H 0.0 **** 0.06
21425 H 246.2623948187674 105.62411442007595 131.91348283048637 H 0.0 **** 0.06
21426 C 188.46676149022755 181.80492956125863 100.34328624397094 C 0.0 **** -0.24
21427 H 189.1867193560642 181.62493338541992 101.14118511608851 H 0.0 **** 0.06
21428 H 188.10964308691894 182.83388445142094 100.40224271264626 H 0.0 **** 0.06
21429 H 187.62473651607058 181.1210448940846 100.45255325281582 H 0.0 **** 0.06
21430 H 188.94570081758252 181.64075283712646 99.37822889394837 H 0.0 **** 0.06
21431 C 226.54860534678176 63.55944761893906 196.2419514437776 C 0.0 **** -0.24
21432 H 225.96140214743468 64.47801261662809 196.28122403362266 H 0.0 **** 0.06
21433 H 227.3754199855435 63.687839211576744 195.54350837563385 H 0.0 **** 0.06
21434 H 225.91456566528598 62.73808206605179 195.9079186892908 H 0.0 **** 0.06
21435 H 226.94086907910935 63.336419402936656 197.23349727494164 H 0.0 **** 0.06
21436 C 242.17972339027887 82.05019654909847 225.08858728438972 C 0.0 **** -0.24
21437 H 242.9898894911223 82.34393928525401 224.42103678835412 H 0.0 **** 0.06
21438 H 242.15640761128356 82.72029306804365 225.94876669139086 H 0.0 **** 0.06
21439 H 242.3410661427309 81.02762249435315 225.42762618123072 H 0.0 **** 0.06
21440 H 241.23086041580092 82.11132655150041 224.55557251132672 H 0.0 **** 0.06
21441 C 223.2472860034031 11.211613658748064 247.1218267585295 C 0.0 **** -0.24
21442 H 222.80736240923716 11.520713190066417 248.0700979654892 H 0.0 **** 0.06
21443 H 222.62147047744014 11.560063102107506 246.29978509968652 H 0.0 **** 0.06
21444 H 223.31514476622849 10.124032089405077 247.0904884356059 H 0.0 **** 0.06
21445 H 224.24467528361276 11.639722010438703 247.0271725380037 H 0.0 **** 0.06
21446 C 226.9943885596225 159.11573588889655 242.2454706805708 C 0.0 **** -0.24
21447 H 226.0786698587937 159.09278740500417 241.6534882392741 H 0.0 **** 0.06
21448 H 227.84797250090367 159.27367604718583 241.585965612746 H 0.0 **** 0.06
21449 H 227.11091135562083 158.16802802250322 242.77115386151846 H 0.0 **** 0.06
21450 H 226.9382517417586 159.92829639534452 242.96884239426328 H 0.0 **** 0.06
21451 C 118.19129125421324 10.597279857692712 244.3748914421132 C 0.0 **** -0.24
21452 H 117.19770012409757 10.961077864651799 244.6348957426648 H 0.0 **** 0.06
21453 H 118.2965317922191 10.572449358492776 243.2897497668243 H 0.0 **** 0.06
21454 H 118.32567270063046 9.592707244453635 244.77531129097784 H 0.0 **** 0.06
21455 H 118.94395231259219 11.26152498564133 244.79840921076823 H 0.0 **** 0.06
21456 C 174.3611857624817 65.68258266067915 136.39511758477053 C 0.0 **** -0.24
21457 H 174.70502994489416 64.69265308529242 136.09623771364667 H 0.0 **** 0.06
21458 H 175.21895487589663 66.29781863100777 136.66717165996153 H 0.0 **** 0.06
21459 H 173.69258551492268 65.59035342639447 137.2512139868096 H 0.0 **** 0.06
21460 H 173.82803118748032 66.14661663852524 135.56664355701946 H 0.0 **** 0.06
21461 C 97.4190690935327 47.43432601027618 232.14656198968106 C 0.0 **** -0.24
21462 H 98.19785741427896 47.93804392355739 231.5743534786408 H 0.0 **** 0.06
21463 H 97.62223741928318 46.363521825078436 232.1722252291193 H 0.0 **** 0.06
21464 H 96.45115948354015 47.60920896694935 231.6762051964762 H 0.0 **** 0.06
21465 H 97.40502205702865 47.82652932551977 233.16346405448797 H 0.0 **** 0.06
21466 C 231.4408886828056 2.4445964725494207 214.33219946855 C 0.0 **** -0.24
21467 H 231.84044161465158 1.9420776246529101 213.45175479459635 H 0.0 **** 0.06
21468 H 231.90497873366738 3.426572545907362 214.43130041953785 H 0.0 **** 0.06
21469 H 231.65823207979898 1.8484373974409607 215.21936731606306 H 0.0 **** 0.06
21470 H 230.3625492477113 2.5608412743769975 214.22771133770647 H 0.0 **** 0.06
21471 C 230.19492842300374 233.95857661234365 232.03738078650514 C 0.0 **** -0.24
21472 H 230.34066161408037 234.9387209373628 231.583909174496 H 0.0 **** 0.06
21473 H 229.12954986913667 233.7306552811756 232.0751958073556 H 0.0 **** 0.06
21474 H 230.60239673398095 233.96157274274526 233.0485668089717 H 0.0 **** 0.06
21475 H 230.7073441993001 233.20260852306583 231.44123323567027 H 0.0 **** 0.06
21476 C 218.6992339517104 179.0985642686232 248.04239672968734 C 0.0 **** -0.24
21477 H 219.3097171716105 178.20196569664864 247.93617617771943 H 0.0 **** 0.06
21478 H 217.93871661981058 178.93136141822555 248.8049668322727 H 0.0 **** 0.06
21479 H 218.21651158768657 179.32346066397758 247.09058618461893 H 0.0 **** 0.06
21480 H 219.33176383527248 179.93682095568573 248.33572972981358 H 0.0 **** 0.06
21481 C 182.28595224947833 133.60000926125275 6.01082578592829 C 0.0 **** -0.24
21482 H 183.2544412558174 133.10482082095274 6.0868720261424585 H 0.0 **** 0.06
21483 H 182.40740356992455 134.66582654463372 6.202042041141368 H 0.0 **** 0.06
21484 H 181.60171148887116 133.17358320705563 6.743992182847961 H 0.0 **** 0.06
21485 H 181.88209948204766 133.45405531316032 5.008519961726648 H 0.0 **** 0.06
21486 C 35.03346739858527 202.42137238534937 197.4815927451752 C 0.0 **** -0.24
21487 H 35.1886110439475 203.48545987556537 197.66077096642533 H 0.0 **** 0.06
21488 H 34.37001443503242 202.28944850316307 196.62765082048708 H 0.0 **** 0.06
21489 H 34.58332761549305 201.96653511179153 198.3653839102878 H 0.0 **** 0.06
21490 H 35.99131233070439 201.94409036817927 197.27625759333625 H 0.0 **** 0.06
21491 C 201.6979775288143 227.03426735567083 112.83896030808049 C 0.0 **** -0.24
21492 H 201.44883570086472 227.53525921344888 113.7747124562712 H 0.0 **** 0.06
21493 H 201.82409361051273 225.96628193966873 113.02065364287193 H 0.0 **** 0.06
21494 H 202.6244836371309 227.44649671485715 112.44157518278828 H 0.0 **** 0.06
21495 H 200.89350410243014 227.18817720289562 112.11943279719182 H 0.0 **** 0.06
21496 C 227.64088800156918 86.97423334139134 80.37554491161646 C 0.0 **** -0.24
21497 H 228.24963739145835 87.87765426898648 80.4168169398605 H 0.0 **** 0.06
21498 H 228.0050439854161 86.32840063649422 79.57537110292085 H 0.0 **** 0.06
21499 H 226.60278889467725 87.24421931333805 80.1808698193039 H 0.0 **** 0.06
21500 H 227.7087406788706 86.44741358891625 81.32703349563289 H 0.0 **** 0.06
21501 C 86.91613821686101 193.26625489279752 68.20950628702596 C 0.0 **** -0.24
21502 H 86.52030439991688 192.26299962821219 68.05836723681668 H 0.0 **** 0.06
21503 H 86.11087464601695 193.99390071482355 68.11075557058757 H 0.0 **** 0.06
21504 H 87.68344260239405 193.47100119748467 67.46206230126177 H 0.0 **** 0.06
21505 H 87.35140530877248 193.3384226237288 69.20577931076241 H 0.0 **** 0.06
21506 C 96.09359733934645 246.01325724572757 50.15302617378208 C 0.0 **** -0.24
21507 H 96.2611789222646 245.87226286318815 51.22121790512895 H 0.0 **** 0.06
21508 H 95.33935518556169 246.78485415570557 50.002306102490564 H 0.0 **** 0.06
21509 H 95.74965693759867 245.07671364281128 49.7136292545882 H 0.0 **** 0.06
21510 H 97.02615727624678 246.31736920835965 49.67629935456577 H 0.0 **** 0.06
21511 C 117.51983552914606 95.49304711301775 126.5345548523508 C 0.0 **** -0.24
21512 H 118.32424020708956 95.19955918743085 127.20794590264774 H 0.0 **** 0.06
21513 H 116.72355686292605 95.97012532739566 127.10708716176819 H 0.0 **** 0.06
21514 H 117.12668290693776 94.60981883736994 126.03202088431797 H 0.0 **** 0.06
21515 H 117.90387003293745 96.19337390524191 125.7930473002379 H 0.0 **** 0.06
21516 C 115.23383150248546 140.53609913043223 61.25484240871927 C 0.0 **** -0.24
21517 H 114.47028122592494 141.2840271537514 61.47136775989176 H 0.0 **** 0.06
21518 H 115.75986326208587 140.80979556136978 60.33955751704028 H 0.0 **** 0.06
21519 H 114.76226260617184 139.5621378165849 61.12637958080671 H 0.0 **** 0.06
21520 H 115.94200367700265 140.49066847883816 62.08248713969806 H 0.0 **** 0.06
21521 C 131.36712077033744 166.81062166238206 48.939176466945554 C 0.0 **** -0.24
21522 H 131.58225450342985 165.97470510880905 49.605417091133674 H 0.0 **** 0.06
21523 H 132.25940796534562 167.42773884409132 48.83200128999701 H 0.0 **** 0.06
21524 H 130.55877963003775 167.40966875751542 49.35845888662618 H 0.0 **** 0.06
21525 H 131.0687497707964 166.4295735076018 47.96279251888487 H 0.0 **** 0.06
21526 C 237.57479722972357 167.27596643145995 109.39311302606453 C 0.0 **** -0.24
21527 H 236.9877785032923 168.11693964581912 109.76169223392199 H 0.0 **** 0.06
21528 H 238.62602408009764 167.43295666002533 109.63613926516658 H 0.0 **** 0.06
21529 H 237.45944600761658 167.1992123351456 108.31221364691828 H 0.0 **** 0.06
21530 H 237.22593109331538 166.35572660793284 109.86265180402268 H 0.0 **** 0.06
21531 C 225.25654621100284 34.49169442695376 107.195820719669 C 0.0 **** -0.24
21532 H 224.66503574996636 34.983134671071724 106.4232364642173 H 0.0 **** 0.06
21533 H 226.1664610659007 35.06445634783809 107.37621005458027 H 0.0 **** 0.06
21534 H 225.51827991136537 33.48603782925754 106.86580427603974 H 0.0 **** 0.06
21535 H 224.67441488758396 34.431976307328966 108.11461853378418 H 0.0 **** 0.06
21536 C 34.17026420130773 64.69668804777345 139.1637172211269 C 0.0 **** -0.24
21537 H 34.06384380699066 63.799586579231345 139.77365018808177 H 0.0 **** 0.06
21538 H 33.72201351155192 64.52486344015881 138.18490150987557 H 0.0 **** 0.06
21539 H 35.22742722896024 64.93151834576912 139.0444753576218 H 0.0 **** 0.06
21540 H 33.665898204853164 65.53009396755999 139.6538448514307 H 0.0 **** 0.06
21541 C 7.230128498247211 175.40907931184833 84.01670723875 C 0.0 **** -0.24
21542 H 6.633366649278429 176.01161629287094 84.70126333444298 H 0.0 **** 0.06
21543 H 7.3080360407654865 174.39144134099402 84.40201226565597 H 0.0 **** 0.06
21544 H 8.227255269715272 175.8409344173231 83.92701361915499 H 0.0 **** 0.06
21545 H 6.752131805459896 175.39180277781577 83.03734660527732 H 0.0 **** 0.06
21546 C 59.51307799292772 149.31988561549176 38.159776725179384 C 0.0 **** -0.24
21547 H 59.30442535012051 148.74084955826387 37.25992235220902 H 0.0 **** 0.06
21548 H 59.06263482418555 148.8262534297646 39.02193494928471 H 0.0 **** 0.06
21549 H 59.09288026567526 150.3199876178845 38.053177362248434 H 0.0 **** 0.06
21550 H 60.59146293880056 149.39142746280717 38.303718546658345 H 0.0 **** 0.06
21551 C 213.1555955689381 177.55415621424868 55.69296326632602 C 0.0 **** -0.24
21552 H 212.75577276459413 178.03166318850896 54.79828489627579 H 0.0 **** 0.06
21553 H 214.224123656851 177.37894543577508 55.56405055586765 H 0.0 **** 0.06
21554 H 212.64838381622556 176.6031629606387 55.85456968729977 H 0.0 **** 0.06
21555 H 212.99532320538944 178.20290761682838 56.55423671806483 H 0.0 **** 0.06
21556 C 198.76411245766286 212.2240583738423 238.94421066769132 C 0.0 **** -0.24
21557 H 197.72120863031068 212.46395350516738 238.73479359299404 H 0.0 **** 0.06
21558 H 199.40792704166455 212.98007872134878 238.49242686453618 H 0.0 **** 0.06
21559 H 199.0027914979113 211.24676022898564 238.5265011922849 H 0.0 **** 0.06
21560 H 198.9230216773442 212.2081962694423 240.02272623476085 H 0.0 **** 0.06
21561 C 181.70855630244387 60.848695239994726 74.3366462495772 C 0.0 **** -0.24
21562 H 182.61978679249643 60.62513733370085 73.78123610169317 H 0.0 **** 0.06
21563 H 181.62766239265488 60.17386167627379 75.18848743229623 H 0.0 **** 0.06
21564 H 180.84542542022908 60.716289630082684 73.68460376658706 H 0.0 **** 0.06
21565 H 181.74341435410923 61.879006369439224 74.69013522820777 H 0.0 **** 0.06
21566 C 64.21274250592418 1.7663919532344607 143.9042261188297 C 0.0 **** -0.24
21567 H 63.26936001149281 1.5015645037915561 144.38097390682873 H 0.0 **** 0.06
21568 H 64.9745963826355 1.9234363925099416 144.6677628130324 H 0.0 **** 0.06
21569 H 64.0830452363202 2.6812303578691967 143.3264139728918 H 0.0 **** 0.06
21570 H 64.52392877624581 0.9594178735077321 143.24034245769855 H 0.0 **** 0.06
21571 C 25.034158506559976 96.087700618609 83.40860695320785 C 0.0 **** -0.24
21572 H 25.44471642851059 95.67032147989948 82.48934941944631 H 0.0 **** 0.06
21573 H 24.425380653713518 95.33488413399294 83.90975507425134 H 0.0 **** 0.06
21574 H 24.416241695252694 96.95391492315864 83.16965262054018 H 0.0 **** 0.06
21575 H 25.848220789681847 96.39297621325275 84.06552397462193 H 0.0 **** 0.06
21576 C 7.846279152238907 19.29461081186544 242.70882294584152 C 0.0 **** -0.24
21577 H 7.40653101867926 18.98583287872978 243.65748639604942 H 0.0 **** 0.06
21578 H 7.284975580716406 20.137544893788785 242.30665756229487 H 0.0 **** 0.06
21579 H 7.808582839823345 18.463068820707306 242.00513446816407 H 0.0 **** 0.06
21580 H 8.88335570155968 19.589256154901108 242.8679358536339 H 0.0 **** 0.06
21581 C 31.858270387740816 163.56843369809275 18.437793611399485 C 0.0 **** -0.24
21582 H 32.218423114199 162.75340962641738 19.065239498295995 H 0.0 **** 0.06
21583 H 31.35483328479765 164.30982983130627 19.060081686222958 H 0.0 **** 0.06
21584 H 31.1578965279285 163.1765434954363 17.70025710775522 H 0.0 **** 0.06
21585 H 32.70121308892189 164.0340197544348 17.92746254984351 H 0.0 **** 0.06
21586 C 134.66404287800873 131.80548952331748 218.63028758300183 C 0.0 **** -0.24
21587 H 134.2151570554187 132.40710833024116 219.42035080453374 H 0.0 **** 0.06
21588 H 135.1385516797928 130.92694933414933 219.069015420561 H 0.0 **** 0.06
21589 H 135.41260090938445 132.39796881392203 218.10414051811873 H 0.0 **** 0.06
21590 H 133.89069762485138 131.49100522731436 217.9296804796795 H 0.0 **** 0.06
21591 C 65.52610303170275 230.7161330502285 197.84943470430096 C 0.0 **** -0.24
21592 H 65.31262684115376 229.6518552537761 197.7472473130367 H 0.0 **** 0.06
21593 H 65.00782663922155 231.2672528874093 197.06413152444696 H 0.0 **** 0.06
21594 H 66.60014270573205 230.88026347667443 197.7604372106524 H 0.0 **** 0.06
21595 H 65.1847898572137 231.06328034335803 198.82469141057317 H 0.0 **** 0.06
21596 C 178.0903602921203 110.93667294937595 137.6767845825044 C 0.0 **** -0.24
21597 H 177.1595932514387 111.1172349381778 137.13948797120682 H 0.0 **** 0.06
21598 H 178.8203661453375 111.70048016279381 137.4065521343057 H 0.0 **** 0.06
21599 H 178.4784231379828 109.95356332724049 137.41072394004385 H 0.0 **** 0.06
21600 H 177.9036427940651 110.97461235382602 138.75024336213627 H 0.0 **** 0.06
21601 C 14.134265940175368 208.6219563438329 59.50678948993752 C 0.0 **** -0.24
21602 H 13.718378700410398 207.65598611125534 59.79351738236102 H 0.0 **** 0.06
21603 H 13.363906520292034 209.21799746342776 59.017881611533426 H 0.0 **** 0.06
21604 H 14.966918781832163 208.46944655425364 58.82083572423642 H 0.0 **** 0.06
21605 H 14.48733589138621 209.14346421526744 60.3966140353931 H 0.0 **** 0.06
21606 C 82.20169675525153 179.77430527748086 159.93338593047298 C 0.0 **** -0.24
21607 H 82.95277605352612 180.22155731930383 159.28140734276784 H 0.0 **** 0.06
21608 H 82.63252337643016 179.60167484064476 160.9187963564833 H 0.0 **** 0.06
21609 H 81.87303840756968 178.8254590609386 159.5082952037883 H 0.0 **** 0.06
21610 H 81.35001267193661 180.44779598915096 160.02130088237584 H 0.0 **** 0.06
21611 C 57.4687603396122 176.14286179436198 30.444596483080872 C 0.0 **** -0.24
21612 H 58.44334192499363 176.39903061945063 30.027775363232948 H 0.0 **** 0.06
21613 H 57.40042409269924 176.51750433388867 31.465769187006416 H 0.0 **** 0.06
21614 H 57.34856033015049 175.05949284099967 30.44570914234339 H 0.0 **** 0.06
21615 H 56.68409606742935 176.59458611818349 29.83758356278895 H 0.0 **** 0.06
21616 C 123.1555482452481 159.35947946030876 211.31053613122725 C 0.0 **** -0.24
21617 H 122.69335995586377 159.11214619157371 210.3556084928586 H 0.0 **** 0.06
21618 H 122.39849697793574 159.75259545816482 211.9902153017357 H 0.0 **** 0.06
21619 H 123.92998794175622 160.11194155563567 211.15460492289054 H 0.0 **** 0.06
21620 H 123.6015865217295 158.46307561131704 211.74199362596744 H 0.0 **** 0.06
21621 C 45.414403713514275 90.36132509193303 115.2755267362254 C 0.0 **** -0.24
21622 H 45.60193842546627 90.73994711457706 116.27924863206229 H 0.0 **** 0.06
21623 H 46.11253331874323 90.82246156860865 114.57664707794322 H 0.0 **** 0.06
21624 H 44.392774404410176 90.60289255679427 114.9809434863034 H 0.0 **** 0.06
21625 H 45.54930436470161 89.28011728434782 115.26434404014731 H 0.0 **** 0.06
21626 C 200.77651475799138 191.3896826744015 124.0904546010982 C 0.0 **** -0.24
21627 H 201.1479049299772 190.47478002885373 124.55166177185106 H 0.0 **** 0.06
21628 H 199.90369121166466 191.74453589862577 124.63803364584402 H 0.0 **** 0.06
21629 H 200.49907171108669 191.18656972828666 123.05570097626898 H 0.0 **** 0.06
21630 H 201.55609942379624 192.1505109513281 124.1141746746195 H 0.0 **** 0.06
21631 C 33.0332023242057 132.17825548552426 166.88854795500978 C 0.0 **** -0.24
21632 H 33.374058319941994 131.94732568651872 167.89780718200862 H 0.0 **** 0.06
21633 H 33.68853283248504 131.69283265634468 166.16451813334075 H 0.0 **** 0.06
21634 H 33.05719844178559 133.25676543733533 166.73563284819713 H 0.0 **** 0.06
21635 H 32.01467032277483 131.81486170934156 166.7575552829798 H 0.0 **** 0.06
21636 C 219.50926176602255 127.96997875853509 113.89697997132814 C 0.0 **** -0.24
21637 H 219.64039533251994 128.12743097629806 114.9675094455205 H 0.0 **** 0.06
21638 H 220.22360999870747 128.584987447704 113.34928709425455 H 0.0 **** 0.06
21639 H 218.49452973963488 128.24997719649897 113.61115244514303 H 0.0 **** 0.06
21640 H 219.67656988207145 126.91981959466668 113.66093913015663 H 0.0 **** 0.06
21641 C 54.05942925258779 12.039326045038123 71.05769752915543 C 0.0 **** -0.24
21642 H 53.85391570665877 12.783780449433806 71.82725740129018 H 0.0 **** 0.06
21643 H 55.076304540890874 11.66456889448962 71.1784216131463 H 0.0 **** 0.06
21644 H 53.95444998409474 12.496193662861444 70.07332366306738 H 0.0 **** 0.06
21645 H 53.35420338876007 11.214127054970248 71.15267999700504 H 0.0 **** 0.06
21646 C 175.20118159762274 122.5741981268844 15.490458038141526 C 0.0 **** -0.24
21647 H 174.91408835951069 121.52482445637452 15.557090918831506 H 0.0 **** 0.06
21648 H 175.32960039635867 122.98073151521726 16.49299221362776 H 0.0 **** 0.06
21649 H 174.42116667759188 123.13085227842456 14.969534373666505 H 0.0 **** 0.06
21650 H 176.13822243013988 122.65973993958605 14.93979239518788 H 0.0 **** 0.06
21651 C 144.90793308637615 47.83296150810858 77.00080558539807 C 0.0 **** -0.24
21652 H 144.67403649275016 46.83138812872025 77.36253576677137 H 0.0 **** 0.06
21653 H 144.44286077134427 48.57227301386078 77.65249861374429 H 0.0 **** 0.06
21654 H 144.5248016487696 47.95069899153984 75.98699950976314 H 0.0 **** 0.06
21655 H 145.9879243369518 47.97620502381196 76.99948223810145 H 0.0 **** 0.06
21656 C 140.31605679005176 119.81967079389557 103.18482856901181 C 0.0 **** -0.24
21657 H 141.33564988876813 120.13864535934073 103.40154430548765 H 0.0 **** 0.06
21658 H 140.07198604680045 118.946704934059 103.7909908066577 H 0.0 **** 0.06
21659 H 140.2321058509299 119.56477809110405 102.12833506697149 H 0.0 **** 0.06
21660 H 139.62471921885762 120.62992368086952 103.41871144812589 H 0.0 **** 0.06
21661 C 12.612825189924038 117.30067686638691 151.6353280553967 C 0.0 **** -0.24
21662 H 13.104434278830453 117.048736669128 152.57501428513376 H 0.0 **** 0.06
21663 H 11.605793161334987 117.66624016316575 151.83963065450837 H 0.0 **** 0.06
21664 H 12.556622338873794 116.41234355893684 151.00567438086574 H 0.0 **** 0.06
21665 H 13.183251937729182 118.07406897498473 151.1226736653791 H 0.0 **** 0.06
21666 C 157.71876237331227 211.39784674625855 20.404703555360555 C 0.0 **** -0.24
21667 H 157.26453728398158 211.46170141413396 19.416784681207247 H 0.0 **** 0.06
21668 H 157.56406210319324 212.33719677795585 20.936956247270103 H 0.0 **** 0.06
21669 H 158.78715404098833 211.20911410575246 20.302298483747194 H 0.0 **** 0.06
21670 H 157.25810373521688 210.584200501929 20.964476698811865 H 0.0 **** 0.06
21671 C 138.1853126151472 27.33961962431708 86.68998181597036 C 0.0 **** -0.24
21672 H 138.94171637215538 27.13412154058382 87.4465520044449 H 0.0 **** 0.06
21673 H 137.7861013162039 26.39846183153969 86.31099642902623 H 0.0 **** 0.06
21674 H 138.6335289343628 27.90106734610066 85.87091579597038 H 0.0 **** 0.06
21675 H 137.3790971603427 27.92476659994894 87.13262301201107 H 0.0 **** 0.06
21676 C 83.52761809226698 233.6292464384176 138.9340194197397 C 0.0 **** -0.24
21677 H 82.98263815148059 234.16738261040763 138.1577927109023 H 0.0 **** 0.06
21678 H 84.55291575607444 233.459514112779 138.60667831560528 H 0.0 **** 0.06
21679 H 83.04190643065016 232.67144131466853 139.1201137349038 H 0.0 **** 0.06
21680 H 83.530858250156 234.21850614061742 139.85090876532666 H 0.0 **** 0.06
21681 C 171.27180634102046 240.44183866976192 82.07571503539859 C 0.0 **** -0.24
21682 H 170.32400104192698 240.5997186032963 82.58944804163124 H 0.0 **** 0.06
21683 H 171.32684741586053 241.0969084413814 81.20587214730384 H 0.0 **** 0.06
21684 H 171.34272518756202 239.40299500167401 81.75464352959315 H 0.0 **** 0.06
21685 H 172.09526325563806 240.66899336816056 82.75379838957181 H 0.0 **** 0.06
21686 C 42.80671642141405 88.1157714893009 137.94129228477743 C 0.0 **** -0.24
21687 H 42.458449888712636 87.14670650334361 138.2995855313724 H 0.0 **** 0.06
21688 H 42.46092049149368 88.27016470220482 136.91909343833856 H 0.0 **** 0.06
21689 H 43.896418951104096 88.13981270976481 137.96363036230696 H 0.0 **** 0.06
21690 H 42.41216538081645 88.90285259113062 138.58239552595165 H 0.0 **** 0.06
21691 C 17.378104209640767 202.95941236813212 163.0620779159882 C 0.0 **** -0.24
21692 H 16.533109030827248 203.18629414006955 163.71226741122982 H 0.0 **** 0.06
21693 H 17.735042224443703 201.95080485083452 163.26942471399175 H 0.0 **** 0.06
21694 H 18.17992537788713 203.67430026110947 163.24500324846903 H 0.0 **** 0.06
21695 H 17.061651612399857 203.02727982368935 162.0207728019141 H 0.0 **** 0.06
21696 C 2.5031528578357154 107.19903472137949 10.84434743994683 C 0.0 **** -0.24
21697 H 1.613612182391833 107.60437651600265 11.32507706407874 H 0.0 **** 0.06
21698 H 3.3875762720600306 107.70635360001071 11.229851460245811 H 0.0 **** 0.06
21699 H 2.435709944284554 107.35252738081886 9.767057770727433 H 0.0 **** 0.06
21700 H 2.5752869808885777 106.13207404048848 11.055811727591049 H 0.0 **** 0.06
21701 C 53.30683817074089 185.60030122585013 181.75368793355952 C 0.0 **** -0.24
21702 H 53.13321819781602 184.8815198474654 182.5536641775797 H 0.0 **** 0.06
21703 H 54.37845473573674 185.76562396560337 181.6408522054166 H 0.0 **** 0.06
21704 H 52.81802808478264 186.54249955323166 181.99858090326424 H 0.0 **** 0.06
21705 H 52.898865932941646 185.21074200068858 180.8207303582929 H 0.0 **** 0.06
21706 C 117.71658023948257 12.563131817743923 106.53178980343904 C 0.0 **** -0.24
21707 H 116.67694639477116 12.235946666313623 106.55809416281662 H 0.0 **** 0.06
21708 H 117.8271704097478 13.470004881361618 107.12757805817614 H 0.0 **** 0.06
21709 H 118.00795484478081 12.767464157702435 105.50118284145282 H 0.0 **** 0.06
21710 H 118.35401706905375 11.779463934903347 106.9412107440468 H 0.0 **** 0.06
21711 C 242.9276337912753 29.184260028598132 142.7151629525458 C 0.0 **** -0.24
21712 H 242.49721220274648 29.842291949666503 143.46963018845977 H 0.0 **** 0.06
21713 H 242.72946374453807 29.590675297493988 141.72288031123134 H 0.0 **** 0.06
21714 H 242.4792564085006 28.194743812250536 142.79895997235982 H 0.0 **** 0.06
21715 H 244.00374427743526 29.10977490048211 142.86943462559066 H 0.0 **** 0.06
21716 C 153.52516751305873 147.16290718722414 66.60429856754911 C 0.0 **** -0.24
21717 H 153.04288677676217 146.2342134643276 66.2970106845494 H 0.0 **** 0.06
21718 H 152.83694131591835 147.7420974955531 67.22122066393487 H 0.0 **** 0.06
21719 H 153.7962977357295 147.74010081622532 65.72009469415275 H 0.0 **** 0.06
21720 H 154.423032408753 146.9327275030196 67.17814917047826 H 0.0 **** 0.06
21721 C 96.02152835913529 94.98341936291152 178.8124942422747 C 0.0 **** -0.24
21722 H 96.85425244759864 95.03335745377493 178.11018920962778 H 0.0 **** 0.06
21723 H 95.39485161737647 95.86805627487868 178.69658750998425 H 0.0 **** 0.06
21724 H 96.40783691342872 94.94140482545791 179.83077566043477 H 0.0 **** 0.06
21725 H 95.43038492519568 94.08931832502728 178.61134913162863 H 0.0 **** 0.06
21726 C 116.67065033578143 96.73048985010948 130.57920778891625 C 0.0 **** -0.24
21727 H 117.4216126431831 97.19437492887246 131.21908576184705 H 0.0 **** 0.06
21728 H 116.25667661243682 95.85533402613501 131.08067923920902 H 0.0 **** 0.06
21729 H 117.13207767966108 96.42721152037069 129.63998011696802 H 0.0 **** 0.06
21730 H 115.87389167488138 97.4462555531644 130.37841770593627 H 0.0 **** 0.06
21731 C 104.75393716995765 3.161158002307758 98.22921097017192 C 0.0 **** -0.24
21732 H 104.5006351036881 4.064965647242644 97.67589969766254 H 0.0 **** 0.06
21733 H 105.82239457611615 2.967327503511683 98.13929395411006 H 0.0 **** 0.06
21734 H 104.19525807091861 2.3178431711750136 97.8220152693624 H 0.0 **** 0.06
21735 H 104.49530030302742 3.293943071277411 99.27979731458947 H 0.0 **** 0.06
21736 C 109.20798372777654 2.9677484267891714 97.08579502919346 C 0.0 **** -0.24
21737 H 108.73804337509867 3.944468877990417 97.20304603677965 H 0.0 **** 0.06
21738 H 110.28862646524851 3.091497000407145 97.00961667695722 H 0.0 **** 0.06
21739 H 108.83151942804867 2.490787883776136 96.18101392970578 H 0.0 **** 0.06
21740 H 108.97267332718914 2.346199826080934 97.94940831980983 H 0.0 **** 0.06
21741 C 12.89410972259634 221.11493813267037 31.45897906854978 C 0.0 **** -0.24
21742 H 13.169086878957728 220.3504394890478 30.73330218276911 H 0.0 **** 0.06
21743 H 11.886081966010238 221.47127267438597 31.24595721758412 H 0.0 **** 0.06
21744 H 13.595160306827154 221.94682736859698 31.393672534587182 H 0.0 **** 0.06
21745 H 12.925158080448 220.69113431561695 32.463281266014334 H 0.0 **** 0.06
21746 C 226.13780468004913 114.15127024751357 80.71294080560548 C 0.0 **** -0.24
21747 H 225.97050904850119 114.82863700930872 81.55021018168117 H 0.0 **** 0.06
21748 H 227.04615731539417 113.57397976857763 80.88802298860404 H 0.0 **** 0.06
21749 H 226.2444678843441 114.72714174015488 79.79368373968609 H 0.0 **** 0.06
21750 H 225.28912431232172 113.47330771453306 80.61998376956629 H 0.0 **** 0.06
21751 C 157.29619100483023 247.70345959293886 68.65586709873659 C 0.0 **** -0.24
21752 H 157.20055362786718 248.35160806667704 67.7843364773316 H 0.0 **** 0.06
21753 H 156.31329491686466 247.32752142942684 68.93942193250862 H 0.0 **** 0.06
21754 H 157.7216530465977 248.2710833709972 69.48340916174456 H 0.0 **** 0.06
21755 H 157.9509480026558 246.8662731581935 68.41522896707463 H 0.0 **** 0.06
21756 C 170.7824762838797 51.67813419824877 119.59805509488018 C 0.0 **** -0.24
21757 H 169.9704901830692 51.38380314379184 118.93138696613548 H 0.0 **** 0.06
21758 H 171.3295449576869 50.7907122369694 119.91670019543935 H 0.0 **** 0.06
21759 H 170.36953499667118 52.18360328030592 120.4705704595969 H 0.0 **** 0.06
21760 H 171.45780724535265 52.352280067657205 119.07181940422834 H 0.0 **** 0.06
21761 C 55.089847654548265 13.902542272597756 210.96067232949275 C 0.0 **** -0.24
21762 H 55.67769342028757 13.002423043006345 210.7827951510637 H 0.0 **** 0.06
21763 H 54.61469329141525 13.838100325975702 211.93925657747536 H 0.0 **** 0.06
21764 H 54.32461899381261 13.994057074500219 210.18986061003346 H 0.0 **** 0.06
21765 H 55.74280022305143 14.774360366842856 210.92962855674733 H 0.0 **** 0.06
21766 C 104.12674366861557 17.44599488187508 196.71928558016666 C 0.0 **** -0.24
21767 H 103.37261945493015 16.897704783423478 197.2837704834386 H 0.0 **** 0.06
21768 H 104.73934110598742 18.03135118445543 197.40502893477026 H 0.0 **** 0.06
21769 H 103.63442885309306 18.113578636803382 196.01141226410115 H 0.0 **** 0.06
21770 H 104.75806396824248 16.742424133267747 196.17814656517953 H 0.0 **** 0.06
21771 C 61.528752015503784 190.5443209712223 86.25887596234381 C 0.0 **** -0.24
21772 H 61.626340006489215 190.06215637793093 85.28644218388979 H 0.0 **** 0.06
21773 H 62.51761913591287 190.68825585897557 86.69362546522049 H 0.0 **** 0.06
21774 H 60.929733486992944 189.91421187846962 86.91694352018413 H 0.0 **** 0.06
21775 H 61.04038350489742 191.51128869944418 86.13799097618582 H 0.0 **** 0.06
21776 C 154.4024816185372 149.71629744226132 8.57607805181408 C 0.0 **** -0.24
21777 H 155.3407905058581 149.17136737277468 8.472105838330876 H 0.0 **** 0.06
21778 H 153.905996269494 149.41041832421345 9.497458451613994 H 0.0 **** 0.06
21779 H 153.75924847541006 149.49688974610592 7.724267069641314 H 0.0 **** 0.06
21780 H 154.60727521229305 150.7861725892746 8.61167749369659 H 0.0 **** 0.06
21781 C 12.480725637710549 247.79118242237968 130.25543556088286 C 0.0 **** -0.24
21782 H 11.81634646504547 247.43898177036357 131.04549986189693 H 0.0 **** 0.06
21783 H 12.542719080988945 248.8788123280955 130.29154054767415 H 0.0 **** 0.06
21784 H 12.08814938951393 247.481246143857 129.28704464795092 H 0.0 **** 0.06
21785 H 13.472725480700745 247.36462998255885 130.39870761469996 H 0.0 **** 0.06
21786 C 104.79591008663917 45.65484393858773 218.3085386724756 C 0.0 **** -0.24
21787 H 104.8458561081246 46.68342941989155 218.6653339478867 H 0.0 **** 0.06
21788 H 105.23638253847182 44.99062163486033 219.05320862313258 H 0.0 **** 0.06
21789 H 105.34748331877827 45.568595579286324 217.37293793037293 H 0.0 **** 0.06
21790 H 103.75459759460946 45.37774818726629 218.14479556308572 H 0.0 **** 0.06
21791 C 37.065437004982726 123.59761629168105 4.5369096000708 C 0.0 **** -0.24
21792 H 37.31388903536201 124.5045695190559 3.986552450504206 H 0.0 **** 0.06
21793 H 36.01458927754983 123.62618945583057 4.826312786622992 H 0.0 **** 0.06
21794 H 37.68729377012623 123.53343927366055 5.430516367769826 H 0.0 **** 0.06
21795 H 37.2458379954671 122.7278756474253 3.9060988108027175 H 0.0 **** 0.06
21796 C 110.21170901551417 129.39222187569632 224.65456869712807 C 0.0 **** -0.24
21797 H 109.85888292517856 130.42033381856487 224.56945607635674 H 0.0 **** 0.06
21798 H 110.4256730041727 128.99824607453192 223.66171420848895 H 0.0 **** 0.06
21799 H 109.44236815278893 128.78370333119946 225.1303757920469 H 0.0 **** 0.06
21800 H 111.11827007149392 129.3687490770283 225.25931794167582 H 0.0 **** 0.06
21801 C 17.960323448034472 11.37731359738811 67.58351753590716 C 0.0 **** -0.24
21802 H 18.58204402673931 10.686704433845563 68.1534018010801 H 0.0 **** 0.06
21803 H 17.117730394162493 11.698013278038246 68.19667839247228 H 0.0 **** 0.06
21804 H 17.589424613249932 10.879016681526622 66.68841151028789 H 0.0 **** 0.06
21805 H 18.55292555806568 12.24587544139061 67.29666630438393 H 0.0 **** 0.06
21806 C 205.91795956918116 233.34642273135108 229.31242467957495 C 0.0 **** -0.24
21807 H 205.35782139365847 232.44753937359212 229.56828302675964 H 0.0 **** 0.06
21808 H 205.32390991997443 234.22644981672357 229.55721623210766 H 0.0 **** 0.06
21809 H 206.14086024625092 233.34420259169843 228.24523916018697 H 0.0 **** 0.06
21810 H 206.8494009779592 233.36760052925376 229.87797747975475 H 0.0 **** 0.06
21811 C 214.84792353187777 200.7822941907961 45.41959488854394 C 0.0 **** -0.24
21812 H 214.06057376903271 200.67345389394015 46.16675733970777 H 0.0 **** 0.06
21813 H 215.72500458569988 200.21388319543948 45.73021900497993 H 0.0 **** 0.06
21814 H 215.11187602327743 201.83525333745834 45.32249347726935 H 0.0 **** 0.06
21815 H 214.49142154482774 200.4063751569609 44.46032861313719 H 0.0 **** 0.06
21816 C 190.9275063600187 237.29459832559692 227.12254392932581 C 0.0 **** -0.24
21817 H 190.64415129922696 238.32354204811372 226.89929227353608 H 0.0 **** 0.06
21818 H 190.4650282525068 236.98577714872445 228.05969602161204 H 0.0 **** 0.06
21819 H 192.0118935613259 237.2279685163111 227.21152390836676 H 0.0 **** 0.06
21820 H 190.58783408618228 236.64273578902797 226.31740695141977 H 0.0 **** 0.06
21821 C 96.68207988937272 91.49643094953154 110.10580371552652 C 0.0 **** -0.24
21822 H 95.77174692869983 90.92827922966771 109.91774499872295 H 0.0 **** 0.06
21823 H 97.2578819503081 91.0089714616166 110.89341517868081 H 0.0 **** 0.06
21824 H 96.42242831807923 92.50751665353457 110.41877068733822 H 0.0 **** 0.06
21825 H 97.2781047350083 91.53983289288334 109.19386992950831 H 0.0 **** 0.06
21826 C 143.57737219316832 65.15935501610701 118.52311394241792 C 0.0 **** -0.24
21827 H 143.94274644150855 64.13355737307924 118.46778374945438 H 0.0 **** 0.06
21828 H 143.9819408293874 65.73482407863045 117.69063923210854 H 0.0 **** 0.06
21829 H 143.8955213269173 65.60679210917587 119.46441609333479 H 0.0 **** 0.06
21830 H 142.4882488853198 65.1601290662052 118.47028971738283 H 0.0 **** 0.06
21831 C 29.60445141608909 158.26515366108842 182.8363092631418 C 0.0 **** -0.24
21832 H 29.190395810872005 158.44220122332086 183.82862457566273 H 0.0 **** 0.06
21833 H 30.658837656338292 158.54364267311988 182.82702982504864 H 0.0 **** 0.06
21834 H 29.06362094764647 158.86458644970935 182.10373277627272 H 0.0 **** 0.06
21835 H 29.505972879760137 157.2083650210144 182.5850457917523 H 0.0 **** 0.06
21836 C 248.2544326091248 222.24734195567513 241.92508552394565 C 0.0 **** -0.24
21837 H 247.95056613977442 221.32168936508728 241.4345735102001 H 0.0 **** 0.06
21838 H 249.29589194067518 222.46044495045285 241.68517691933306 H 0.0 **** 0.06
21839 H 248.1435558102661 222.1391834104165 243.00329729272215 H 0.0 **** 0.06
21840 H 247.6252138398558 223.06575811475693 241.5747481102087 H 0.0 **** 0.06
21841 C 241.11540008618886 204.414801529124 30.820481422277823 C 0.0 **** -0.24
21842 H 241.0304752783655 203.7756416837079 29.941338633415285 H 0.0 **** 0.06
21843 H 240.47501185597085 204.02750534956624 31.61415211690594 H 0.0 **** 0.06
21844 H 240.8046711446118 205.42728632356625 30.563922210630324 H 0.0 **** 0.06
21845 H 242.15017868254256 204.4268333308689 31.16088713392753 H 0.0 **** 0.06
21846 C 31.494769717221658 158.98896674410256 23.061999784585026 C 0.0 **** -0.24
21847 H 31.879678294831734 159.7671774556024 23.719940534442543 H 0.0 **** 0.06
21848 H 32.11381443355364 158.09552574066447 23.153664383423546 H 0.0 **** 0.06
21849 H 31.51687535144319 159.3412978589216 22.03046563525899 H 0.0 **** 0.06
21850 H 30.468931858571835 158.75097522071735 23.34285257389692 H 0.0 **** 0.06
21851 C 141.96197249890693 113.90916600284831 20.99897760526332 C 0.0 **** -0.24
21852 H 142.52796415894167 114.74327001727471 21.413678102556986 H 0.0 **** 0.06
21853 H 142.16366385861465 113.82834634493767 19.930492062606817 H 0.0 **** 0.06
21854 H 140.897363517044 114.07883767041085 21.155773003785868 H 0.0 **** 0.06
21855 H 142.2597508367818 112.98527258288206 21.49533894963045 H 0.0 **** 0.06
21856 C 106.54825398396017 73.08353847886067 129.14253485007436 C 0.0 **** -0.24
21857 H 105.61043501113406 73.62405278974947 129.2715016087202 H 0.0 **** 0.06
21858 H 106.54694849751598 72.58108466140337 128.1744196494294 H 0.0 **** 0.06
21859 H 106.65371908116873 72.34318150996276 129.9360947089106 H 0.0 **** 0.06
21860 H 107.38098888707327 73.78489196734941 129.18761730016448 H 0.0 **** 0.06
21861 C 3.101932003830086 205.11193975790022 56.99671499830728 C 0.0 **** -0.24
21862 H 3.886143364642024 205.68034216537595 57.49519749420821 H 0.0 **** 0.06
21863 H 2.2782749769061184 205.7788652183424 56.74008275053794 H 0.0 **** 0.06
21864 H 2.7412078727756324 204.32937969764325 57.66448997968905 H 0.0 **** 0.06
21865 H 3.5009636393434675 204.6598245642472 56.088900495635585 H 0.0 **** 0.06
21866 C 224.72120221363 213.73650649443238 46.44132568552831 C 0.0 **** -0.24
21867 H 224.0955594905942 214.10917154130203 47.252705079083086 H 0.0 **** 0.06
21868 H 224.99333714193102 212.70031677956908 46.63937369392815 H 0.0 **** 0.06
21869 H 225.6246317656911 214.34254281254644 46.37235760739108 H 0.0 **** 0.06
21870 H 224.1721166272274 213.79543240749445 45.50197733841324 H 0.0 **** 0.06
21871 C 232.9133429319532 75.34352129129954 87.48799954661752 C 0.0 **** -0.24
21872 H 232.56621990869684 74.54883351545905 86.82855621858425 H 0.0 **** 0.06
21873 H 233.8154602907495 75.79271064091185 87.07141008654159 H 0.0 **** 0.06
21874 H 233.13515825554424 74.92819677599093 88.47095278875193 H 0.0 **** 0.06
21875 H 232.1378972552653 76.10403230688016 87.58087348722347 H 0.0 **** 0.06
21876 C 31.177108378567326 160.0481342849656 248.59489181846118 C 0.0 **** -0.24
21877 H 31.015365044216693 159.40379007999053 249.45964219770423 H 0.0 **** 0.06
21878 H 31.167485737393463 161.09147166518835 248.91313873929704 H 0.0 **** 0.06
21879 H 30.383339002185977 159.88322334360373 247.86574016371077 H 0.0 **** 0.06
21880 H 32.14082313415037 159.8147174326696 248.14263966681483 H 0.0 **** 0.06
21881 C 139.03565862552733 169.9155669640635 17.539829292955716 C 0.0 **** -0.24
21882 H 139.85981407921582 169.32052747113863 17.14695863398842 H 0.0 **** 0.06
21883 H 138.13495982377066 169.30252815464416 17.58653761074467 H 0.0 **** 0.06
21884 H 138.85975685153784 170.7698242464144 16.884795975707647 H 0.0 **** 0.06
21885 H 139.28732293692525 170.2695735940182 18.53893786433477 H 0.0 **** 0.06
21886 C 32.54522306701857 203.05911333013069 149.6913110934876 C 0.0 **** -0.24
21887 H 31.865804459761776 202.79869439233647 148.88073050767673 H 0.0 **** 0.06
21888 H 32.102908889196854 202.76696859968075 150.64403728669353 H 0.0 **** 0.06
21889 H 32.72131832076474 204.13471283261146 149.68709928191242 H 0.0 **** 0.06
21890 H 33.491722702319336 202.53616423147741 149.55387656054822 H 0.0 **** 0.06
21891 C 72.03573807716131 162.19149480931083 220.72381279239357 C 0.0 **** -0.24
21892 H 72.75130675300343 162.3086204470526 219.91124673113023 H 0.0 **** 0.06
21893 H 72.55870522100415 161.87151397001549 221.62545862377783 H 0.0 **** 0.06
21894 H 71.2925580939577 161.4421666387232 220.44968985891393 H 0.0 **** 0.06
21895 H 71.53920341184423 163.1438132192357 220.9101177626256 H 0.0 **** 0.06
21896 C 43.41709745084033 141.40456260474667 210.99862802758662 C 0.0 **** -0.24
21897 H 42.53294840218376 141.524782230603 210.37203942489472 H 0.0 **** 0.06
21898 H 43.135566934260666 141.50884056474678 212.04648309611872 H 0.0 **** 0.06
21899 H 44.15051660347963 142.16835339895965 210.74088099174833 H 0.0 **** 0.06
21900 H 43.84752630761962 140.4171387748457 210.83268000670333 H 0.0 **** 0.06
21901 C 5.985063818539032 2.7019612658591825 212.6340474107821 C 0.0 **** -0.24
21902 H 6.174210947464388 2.1155707280990725 211.73423016179555 H 0.0 **** 0.06
21903 H 6.083211559009641 3.762118365582694 212.40205709413456 H 0.0 **** 0.06
21904 H 6.707792957945685 2.4289391663407116 213.40257853415582 H 0.0 **** 0.06
21905 H 4.977043043041448 2.4989862966462226 212.99415966580148 H 0.0 **** 0.06
21906 C 111.03656917779276 152.6236815835753 112.30417329002253 C 0.0 **** -0.24
21907 H 111.23797429675074 152.74774688319016 111.24015432945595 H 0.0 **** 0.06
21908 H 111.44998123882394 153.4702647027835 112.85271778513791 H 0.0 **** 0.06
21909 H 111.49929259253159 151.70148618675208 112.65646332119925 H 0.0 **** 0.06
21910 H 109.96027516232141 152.5747232187791 112.46692104559324 H 0.0 **** 0.06
21911 C 248.73966155758808 228.91135788479625 119.17690458785859 C 0.0 **** -0.24
21912 H 248.04297574960054 228.46932302215163 118.46514084397256 H 0.0 **** 0.06
21913 H 248.67944059116863 228.37497259532213 120.12447033034863 H 0.0 **** 0.06
21914 H 248.48272576103 229.958836185942 119.3343999002916 H 0.0 **** 0.06
21915 H 249.7535283079893 228.8412071828754 118.78270963379461 H 0.0 **** 0.06
21916 C 180.836572055719 91.06009572155526 190.37210247340056 C 0.0 **** -0.24
21917 H 181.82746983568921 90.85304913936764 189.9683873908171 H 0.0 **** 0.06
21918 H 180.59166954639187 92.11029526820116 190.21151216273182 H 0.0 **** 0.06
21919 H 180.82826461932248 90.84386242399282 191.4403939674635 H 0.0 **** 0.06
21920 H 180.10031495580228 90.4341421223219 189.8691262000492 H 0.0 **** 0.06
21921 C 187.04110590740447 3.9051102445031063 164.51949976233956 C 0.0 **** -0.24
21922 H 187.80410017923322 3.4236811664614493 165.1309679547653 H 0.0 **** 0.06
21923 H 186.38979934173727 3.144905520698586 164.0880671420264 H 0.0 **** 0.06
21924 H 187.51925904344347 4.470927934252188 163.720212276501 H 0.0 **** 0.06
21925 H 186.45110014756426 4.579857742662 165.1401047819874 H 0.0 **** 0.06
21926 C 174.97419985821688 63.79558513886943 120.32050140807385 C 0.0 **** -0.24
21927 H 174.54099327703256 63.01166004516253 120.94251353359513 H 0.0 **** 0.06
21928 H 174.47894922970323 63.804200214653605 119.3494863898587 H 0.0 **** 0.06
21929 H 176.03834546050655 63.603588767285345 120.18504626883131 H 0.0 **** 0.06
21930 H 174.8379796914365 64.76154779711786 120.80758844935895 H 0.0 **** 0.06
21931 C 113.02384636773073 133.63961609414224 95.69472140207179 C 0.0 **** -0.24
21932 H 112.46667492760176 132.7258816539327 95.90488548542385 H 0.0 **** 0.06
21933 H 112.33292349632188 134.41996830042697 95.3746017435673 H 0.0 **** 0.06
21934 H 113.74897947185622 133.448526523725 94.90349429872452 H 0.0 **** 0.06
21935 H 113.54546789340131 133.96239032431433 96.59533527176714 H 0.0 **** 0.06
21936 C 89.74903033869873 43.191809656089546 121.62756713874538 C 0.0 **** -0.24
21937 H 89.15802046819249 44.10161954154691 121.52297807047017 H 0.0 **** 0.06
21938 H 90.80953742453912 43.44016832288786 121.57434803365166 H 0.0 **** 0.06
21939 H 89.49736582132428 42.50025257344622 120.82433409148317 H 0.0 **** 0.06
21940 H 89.5325919537593 42.726818077485134 122.58926554505152 H 0.0 **** 0.06
21941 C 219.06238478166216 133.27894989174965 242.26953211780142 C 0.0 **** -0.24
21942 H 218.67746285446924 134.28344080409937 242.0923015034826 H 0.0 **** 0.06
21943 H 218.80981257567794 132.63839021688966 241.42387724502407 H 0.0 **** 0.06
21944 H 218.61580731528 132.87492430543165 243.1780900199697 H 0.0 **** 0.06
21945 H 220.1456504785591 133.31906975169548 242.38445120912775 H 0.0 **** 0.06
21946 C 59.390686940185674 203.76588555919528 6.215261709800274 C 0.0 **** -0.24
21947 H 59.5657696766724 202.69993933096418 6.356106410153387 H 0.0 **** 0.06
21948 H 60.289320993871655 204.3214706908438 6.485607007161434 H 0.0 **** 0.06
21949 H 58.56246098178582 204.08495215374973 6.847532880688647 H 0.0 **** 0.06
21950 H 59.14569571067497 203.95886803406097 5.170421703293101 H 0.0 **** 0.06
21951 C 230.85304254385798 139.86777803895086 80.17564853425742 C 0.0 **** -0.24
21952 H 230.2139395766825 139.9665335612436 79.29805562415257 H 0.0 **** 0.06
21953 H 230.5879252946204 138.96084888932538 80.71773793353233 H 0.0 **** 0.06
21954 H 230.7160540333557 140.73350056765454 80.82361012283394 H 0.0 **** 0.06
21955 H 231.8955920149844 139.81236559029156 79.86128308340992 H 0.0 **** 0.06
21956 C 116.58616399896843 162.5673825009517 105.10692370524936 C 0.0 **** -0.24
21957 H 116.25200040976586 161.54290180420364 105.27428432704613 H 0.0 **** 0.06
21958 H 116.58159599001547 162.77983365678 104.0374714078794 H 0.0 **** 0.06
21959 H 117.59687705495259 162.68784466939434 105.49731909069487 H 0.0 **** 0.06
21960 H 115.9140977955444 163.25614437320561 105.61827061795674 H 0.0 **** 0.06
21961 C 116.54628061154108 179.16782476096353 225.60327938774674 C 0.0 **** -0.24
21962 H 115.83108773641044 179.73060628028196 226.20388965259866 H 0.0 **** 0.06
21963 H 116.32841162077995 179.3175808150927 224.54583303165387 H 0.0 **** 0.06
21964 H 116.46878019366949 178.10806793351304 225.84524987449393 H 0.0 **** 0.06
21965 H 117.5560060256243 179.5172894993853 225.81865244400015 H 0.0 **** 0.06
21966 C 20.87416538787454 58.800489577630486 109.35986132729673 C 0.0 **** -0.24
21967 H 21.081047872845446 59.78005364529568 109.79063672348906 H 0.0 **** 0.06
21968 H 20.67402107191367 58.0879923688812 110.16067813423604 H 0.0 **** 0.06
21969 H 21.737582697811817 58.46695058528948 108.78350304760752 H 0.0 **** 0.06
21970 H 20.004630377261677 58.8675364140031 108.70669737589631 H 0.0 **** 0.06
21971 C 8.495967597905846 195.28992765507078 231.19478044133814 C 0.0 **** -0.24
21972 H 8.796510787003896 194.85596982380974 230.24135978030517 H 0.0 **** 0.06
21973 H 8.07500868037829 194.51151615664068 231.83187518064972 H 0.0 **** 0.06
21974 H 7.747000352981786 196.06272424446087 231.02100164783167 H 0.0 **** 0.06
21975 H 9.365065297340138 195.7304098145546 231.68312685781694 H 0.0 **** 0.06
21976 C 12.337496252133803 86.61477948166745 10.075361732206517 C 0.0 **** -0.24
21977 H 12.866165866494612 87.42720853416486 9.57795040207239 H 0.0 **** 0.06
21978 H 12.661073567866111 86.55464081255744 11.114805158609244 H 0.0 **** 0.06
21979 H 12.55781977613907 85.67511422472208 9.570137716858312 H 0.0 **** 0.06
21980 H 11.264766945199199 86.80354611016202 10.038748082374198 H 0.0 **** 0.06
21981 C 220.81270917969823 187.89611284494325 146.642646906662 C 0.0 **** -0.24
21982 H 220.1092221447081 187.59987048975762 145.86406933519183 H 0.0 **** 0.06
21983 H 221.8153837712207 187.9617998999367 146.22029463321158 H 0.0 **** 0.06
21984 H 220.80203097470536 187.15401240605584 147.44156460785183 H 0.0 **** 0.06
21985 H 220.52261129482324 188.86585829621066 147.04474207933788 H 0.0 **** 0.06
21986 C 117.39158971656033 120.97316263854597 103.35812154982202 C 0.0 **** -0.24
21987 H 117.38123150768561 121.97478279060098 102.92850387584039 H 0.0 **** 0.06
21988 H 118.42244655215035 120.64255349057126 103.48339860503106 H 0.0 **** 0.06
21989 H 116.86778099056806 120.2880332132033 102.69177355126001 H 0.0 **** 0.06
21990 H 116.89383887267951 120.98910142915 104.32756088196047 H 0.0 **** 0.06
21991 C 228.18187467794098 241.76217337485272 171.88883392239566 C 0.0 **** -0.24
21992 H 228.83394758701243 242.5780686263832 172.19827925618222 H 0.0 **** 0.06
21993 H 227.62452323387762 242.06081919164419 171.00007994707173 H 0.0 **** 0.06
21994 H 227.4847873744929 241.52916622379126 172.69351990119344 H 0.0 **** 0.06
21995 H 228.7831366914144 240.88201919405503 171.66251960237858 H 0.0 **** 0.06
21996 C 89.26672552938649 116.58361031000643 235.315773383484 C 0.0 **** -0.24
21997 H 90.21467598249427 116.28952933415971 235.7685149281818 H 0.0 **** 0.06
21998 H 89.24870828595675 116.26516595201556 234.27346386168801 H 0.0 **** 0.06
21999 H 89.16033354613407 117.66665406166734 235.36786499860997 H 0.0 **** 0.06
22000 H 88.44510151199427 116.11142513879244 235.85484546795564 H 0.0 **** 0.06
22001 C 62.74758132352321 13.82733423765103 158.240982322306 C 0.0 **** -0.24
22002 H 62.00898083750647 14.623545810790532 158.33796185397023 H 0.0 **** 0.06
22003 H 62.25302847432778 12.910400513077605 157.92265139490763 H 0.0 **** 0.06
22004 H 63.232339590121825 13.663781394493213 159.2040568109677 H 0.0 **** 0.06
22005 H 63.49542561891661 14.11406653700962 157.50163797253256 H 0.0 **** 0.06
22006 C 172.4360119058801 154.898529677172 62.248507027158524 C 0.0 **** -0.24
22007 H 171.66503832205564 154.14204636883258 62.1044226778034 H 0.0 **** 0.06
22008 H 172.00060415435325 155.77289645104239 62.73275015663745 H 0.0 **** 0.06
22009 H 172.84851084664373 155.18522603056198 61.281580770390946 H 0.0 **** 0.06
22010 H 173.22981609342347 154.49271673256132 62.87596247485291 H 0.0 **** 0.06
22011 C 163.17610651400676 63.83748786393559 59.44084730270191 C 0.0 **** -0.24
22012 H 162.19312382471432 63.57261354902286 59.83151366671365 H 0.0 **** 0.06
22013 H 163.40289579373973 63.21434892915474 58.575038390838756 H 0.0 **** 0.06
22014 H 163.9292157180874 63.67569460380409 60.21282207455346 H 0.0 **** 0.06
22015 H 163.1794416414547 64.8867390662783 59.145291280582285 H 0.0 **** 0.06
22016 C 141.002269162268 205.78486753422902 143.10195731801446 C 0.0 **** -0.24
22017 H 140.7429130106174 204.7374075652794 143.2529989043933 H 0.0 **** 0.06
22018 H 141.59502086777567 206.13781497763358 143.94637551730813 H 0.0 **** 0.06
22019 H 140.09130860995012 206.37828915953733 143.0250533913248 H 0.0 **** 0.06
22020 H 141.58071241758452 205.88690180082799 142.18398347645245 H 0.0 **** 0.06
22021 C 208.78074281420174 235.13903729799438 225.07033986303148 C 0.0 **** -0.24
22022 H 207.86329319381753 235.4593663730843 224.57678738864715 H 0.0 **** 0.06
22023 H 209.2397864010761 234.33341055620414 224.4969637985351 H 0.0 **** 0.06
22024 H 208.5475592068109 234.78416774125932 226.07446414646313 H 0.0 **** 0.06
22025 H 209.4716470469101 235.98028694513005 225.13374294568234 H 0.0 **** 0.06
22026 C 113.81793780885636 115.09172377147146 187.89952747195338 C 0.0 **** -0.24
22027 H 114.31706283026932 116.02864522466726 187.65114474742694 H 0.0 **** 0.06
22028 H 114.55577896848476 114.29225546871916 187.9610125732092 H 0.0 **** 0.06
22029 H 113.0872308587129 114.85394173441873 187.1261791486308 H 0.0 **** 0.06
22030 H 113.31143532935238 115.19361502776857 188.85906641056457 H 0.0 **** 0.06
22031 C 209.5957274717251 203.5800855662526 69.16801487194098 C 0.0 **** -0.24
22032 H 208.98662486120253 203.94585161579843 68.34165733940736 H 0.0 **** 0.06
22033 H 209.43172219516788 204.2070596738393 70.04453829349492 H 0.0 **** 0.06
22034 H 210.6485805965908 203.61477231971037 68.88713464754025 H 0.0 **** 0.06
22035 H 209.31529117166087 202.55194848377135 69.39886373817436 H 0.0 **** 0.06
22036 C 177.5091343917643 84.36868188101991 26.66373004022735 C 0.0 **** -0.24
22037 H 177.01157308390145 83.90659708533511 25.811468959863475 H 0.0 **** 0.06
22038 H 178.38094551668186 84.92361398822553 26.31768194455573 H 0.0 **** 0.06
22039 H 177.824577599935 83.59473636658956 27.36333956751824 H 0.0 **** 0.06
22040 H 176.81902886330548 85.04978462732825 27.16107697321658 H 0.0 **** 0.06
22041 C 222.40343738274933 15.18496374493671 104.02902001250592 C 0.0 **** -0.24
22042 H 223.04966578918612 15.683480863284473 103.30702133400072 H 0.0 **** 0.06
22043 H 222.7972435966539 14.191091467440572 104.24294321389013 H 0.0 **** 0.06
22044 H 221.3982062201472 15.096675715057799 103.61624754727902 H 0.0 **** 0.06
22045 H 222.3694959088488 15.768492101660385 104.94875268946893 H 0.0 **** 0.06
22046 C 179.8479696827797 224.40669061216144 129.60208207441445 C 0.0 **** -0.24
22047 H 179.0134969891212 225.09045557776287 129.4475946609079 H 0.0 **** 0.06
22048 H 179.4648940379698 223.4231380247008 129.87666892937034 H 0.0 **** 0.06
22049 H 180.48502331645494 224.78522969783023 130.40202920183532 H 0.0 **** 0.06
22050 H 180.4274142156833 224.3267455309204 128.68272285235815 H 0.0 **** 0.06
22051 C 204.55945430356508 59.49711765722466 140.26762003101985 C 0.0 **** -0.24
22052 H 204.10151762576913 59.54412189693571 139.2799074393808 H 0.0 **** 0.06
22053 H 205.6444811169986 59.53577823698538 140.1676612932764 H 0.0 **** 0.06
22054 H 204.27179493454415 58.566404990803335 140.75742059919753 H 0.0 **** 0.06
22055 H 204.21889623044362 60.34241691720004 140.8663068749471 H 0.0 **** 0.06
22056 C 4.315439551208982 122.92100502342387 83.12875486719389 C 0.0 **** -0.24
22057 H 3.4911994233550843 123.45839548585849 83.59872005801179 H 0.0 **** 0.06
22058 H 3.9230842973043707 122.07023323009452 82.57089620424537 H 0.0 **** 0.06
22059 H 5.002377966337434 122.56668861189414 83.89700030893115 H 0.0 **** 0.06
22060 H 4.843723768314675 123.58848593587823 82.4486647429288 H 0.0 **** 0.06
22061 C 189.3173754932048 58.85598560800494 159.46230771869708 C 0.0 **** -0.24
22062 H 188.66551036826007 58.40578979628407 158.71404295725213 H 0.0 **** 0.06
22063 H 188.71932603309432 59.43972104840208 160.16190928066294 H 0.0 **** 0.06
22064 H 190.03879351276237 59.5083254616695 158.96924551657662 H 0.0 **** 0.06
22065 H 189.84627531849299 58.07169321497193 160.0025104326209 H 0.0 **** 0.06
22066 C 90.27844460469609 126.42107513681026 35.33027041261252 C 0.0 **** -0.24
22067 H 91.25465150795151 126.90254324794637 35.27400223655232 H 0.0 **** 0.06
22068 H 90.3650564914129 125.38517793231273 35.00234979419466 H 0.0 **** 0.06
22069 H 89.57522197825054 126.94874799940067 34.68711347820579 H 0.0 **** 0.06
22070 H 89.91939296845825 126.44866841909791 36.35961686223686 H 0.0 **** 0.06
22071 C 87.74495536738428 117.27205702779776 183.00933134244679 C 0.0 **** -0.24
22072 H 87.48554643029192 117.89232916520865 183.86705801469776 H 0.0 **** 0.06
22073 H 87.55497556798363 116.22568444497685 183.24625464909184 H 0.0 **** 0.06
22074 H 88.80025209181971 117.40569493820115 182.7708459045097 H 0.0 **** 0.06
22075 H 87.13930644803557 117.56654601409568 182.15225772101016 H 0.0 **** 0.06
22076 C 246.366031015813 183.63815119631022 90.16508870671245 C 0.0 **** -0.24
22077 H 246.80304862005687 182.8329994111574 89.57359331753997 H 0.0 **** 0.06
22078 H 245.33676936575839 183.80400839859112 89.8464220839167 H 0.0 **** 0.06
22079 H 246.94466622151646 184.5504152997109 90.01934209367434 H 0.0 **** 0.06
22080 H 246.3809209158991 183.36300271576863 91.21938143994299 H 0.0 **** 0.06
22081 C 116.13885299835562 219.46515967020954 129.37060377984395 C 0.0 **** -0.24
22082 H 115.15109403174205 219.64430989518974 129.79476528877632 H 0.0 **** 0.06
22083 H 116.30638324979853 220.15122695228573 128.53936982723545 H 0.0 **** 0.06
22084 H 116.19857689711264 218.43789211676537 129.01134482482468 H 0.0 **** 0.06
22085 H 116.89780770999383 219.62741918064393 130.13568884834692 H 0.0 **** 0.06
22086 C 61.26876111794371 142.85810660694224 121.80761865496967 C 0.0 **** -0.24
22087 H 60.755603886629416 143.81580437652258 121.88863221663345 H 0.0 **** 0.06
22088 H 61.855510506211914 142.6825362809105 122.71023474263828 H 0.0 **** 0.06
22089 H 61.92910621513198 142.87182428349092 120.94066032571331 H 0.0 **** 0.06
22090 H 60.534038025535125 142.06091330030242 121.69169892020349 H 0.0 **** 0.06
22091 C 104.65022450811279 248.0473760440869 216.8763260314181 C 0.0 **** -0.24
22092 H 104.27625947084493 249.0705820111679 216.8411085885677 H 0.0 **** 0.06
22093 H 104.866259729436 247.70516781555494 215.86383707424176 H 0.0 **** 0.06
22094 H 103.89739662821307 247.4003209980828 217.32668757643478 H 0.0 **** 0.06
22095 H 105.56174033060589 248.01460645356224 217.4738924605909 H 0.0 **** 0.06
22096 C 165.4974841600469 24.037290172107618 6.130295320294437 C 0.0 **** -0.24
22097 H 164.41618928844645 23.9130380376601 6.178371983576284 H 0.0 **** 0.06
22098 H 165.7450626332358 24.784643554007175 5.376368670981066 H 0.0 **** 0.06
22099 H 165.96041412390892 23.08667816247349 5.864789711619835 H 0.0 **** 0.06
22100 H 165.86870771176038 24.36346561708136 7.101811775229095 H 0.0 **** 0.06
22101 C 37.91639262410078 19.210966858180797 241.58121552275188 C 0.0 **** -0.24
22102 H 37.016373596529746 18.663647607147 241.86200718887423 H 0.0 **** 0.06
22103 H 38.77879419978936 18.54643807140191 241.64126209639048 H 0.0 **** 0.06
22104 H 38.05713725906449 20.05145152842988 242.2604216994208 H 0.0 **** 0.06
22105 H 37.812752218044665 19.58101411230558 240.56123794245914 H 0.0 **** 0.06
22106 C 47.60842292071119 170.9544366644745 195.4334987394542 C 0.0 **** -0.24
22107 H 48.23694125499773 171.8385739850795 195.32765229772843 H 0.0 **** 0.06
22108 H 46.997146634779625 171.0488177911136 196.33167137637676 H 0.0 **** 0.06
22109 H 48.23849796284131 170.06858921863528 195.51318758890415 H 0.0 **** 0.06
22110 H 46.96121779238554 170.86303117126675 194.5608624275917 H 0.0 **** 0.06
22111 C 7.743565976082294 112.25755680939159 195.9229901383632 C 0.0 **** -0.24
22112 H 7.74843736323524 112.90377480101142 195.04513129580536 H 0.0 **** 0.06
22113 H 6.981461863721819 112.60246012804834 196.62189756644096 H 0.0 **** 0.06
22114 H 8.721180975035253 112.29127963660054 196.4041546181163 H 0.0 **** 0.06
22115 H 7.52296862965099 111.2349665785313 195.61984235008862 H 0.0 **** 0.06
22116 C 61.56086516634372 199.0780959483431 5.614969832974296 C 0.0 **** -0.24
22117 H 62.0674877685218 199.46772944619096 4.732438905493126 H 0.0 **** 0.06
22118 H 62.09271161593213 198.19835084389146 5.979726589479412 H 0.0 **** 0.06
22119 H 60.538431126923825 198.80479746680874 5.355890433656413 H 0.0 **** 0.06
22120 H 61.54638294322018 199.84238996114246 6.392722047676358 H 0.0 **** 0.06
22121 C 102.44476698370303 99.93254677708148 78.59000045738165 C 0.0 **** -0.24
22122 H 101.81645941096548 99.1683132218636 79.04862693555862 H 0.0 **** 0.06
22123 H 103.3747497531954 99.47911732328018 78.24710783959583 H 0.0 **** 0.06
22124 H 102.66732457236316 100.7072373116145 79.32324479381555 H 0.0 **** 0.06
22125 H 101.92070191787937 100.37326466789682 77.74196501239831 H 0.0 **** 0.06
22126 C 192.3111724211158 247.47325143412058 244.30872034218925 C 0.0 **** -0.24
22127 H 192.60990635890857 247.5481134368291 243.26325428271528 H 0.0 **** 0.06
22128 H 191.43345521417763 246.8309524095968 244.38977618994545 H 0.0 **** 0.06
22129 H 192.0719183557967 248.4653273244283 244.6899649834795 H 0.0 **** 0.06
22130 H 193.12786825874772 247.0473800897367 244.89043510280268 H 0.0 **** 0.06
22131 C 217.58848347666154 221.0674156581776 60.679033126264926 C 0.0 **** -0.24
22132 H 218.17145733649707 220.3558557315967 61.26332202184338 H 0.0 **** 0.06
22133 H 217.23544900196285 220.58512357183207 59.76709092430093 H 0.0 **** 0.06
22134 H 218.2146333482065 221.9214813876187 60.41873397459224 H 0.0 **** 0.06
22135 H 216.73576863822208 221.40709337758793 61.26537262068675 H 0.0 **** 0.06
22136 C 123.77306469782818 106.0881002969123 78.86296150279694 C 0.0 **** -0.24
22137 H 124.61362400280038 106.26464754727905 78.19157361502292 H 0.0 **** 0.06
22138 H 122.85856562752232 106.46810255274679 78.40641543155053 H 0.0 **** 0.06
22139 H 123.94854576405666 106.60085087252449 79.8080095434776 H 0.0 **** 0.06
22140 H 123.67156320980754 105.01803297516298 79.04294744778278 H 0.0 **** 0.06
22141 C 196.86332410013648 175.7487091435475 239.91358069590348 C 0.0 **** -0.24
22142 H 197.61953434901534 176.0051061671046 239.1714970101925 H 0.0 **** 0.06
22143 H 195.94895314847756 175.43865914098552 239.40788876790515 H 0.0 **** 0.06
22144 H 196.65686047756367 176.61815940021233 240.53848517042547 H 0.0 **** 0.06
22145 H 197.22839661407463 174.93257675902203 240.53728059326923 H 0.0 **** 0.06
22146 C 169.54938778050308 69.64081184519304 159.11477497926265 C 0.0 **** -0.24
22147 H 168.686910582176 70.23214591861054 158.80619975107302 H 0.0 **** 0.06
22148 H 170.13104915223394 69.36175533010189 158.23628759886557 H 0.0 **** 0.06
22149 H 169.20883103622853 68.74175603830938 159.62711989842285 H 0.0 **** 0.06
22150 H 170.16973601231527 70.23011237923455 159.7907531817071 H 0.0 **** 0.06
22151 C 128.97996552820635 91.43702379712852 60.89586972907054 C 0.0 **** -0.24
22152 H 129.087166250361 92.09454858043568 60.033423366042626 H 0.0 **** 0.06
22153 H 128.999952320344 90.39856658579691 60.5644776313932 H 0.0 **** 0.06
22154 H 128.03102917583712 91.64213570386215 61.39199721236159 H 0.0 **** 0.06
22155 H 129.79929937322805 91.61271323988143 61.59154337383282 H 0.0 **** 0.06
22156 C 226.52711132557573 53.76671649172968 219.54155267682467 C 0.0 **** -0.24
22157 H 227.37992996930927 54.28985919058991 219.97649251924625 H 0.0 **** 0.06
22158 H 226.85948237149634 53.18267994571312 218.683099198885 H 0.0 **** 0.06
22159 H 225.78193117958273 54.494049078740176 219.2195861791278 H 0.0 **** 0.06
22160 H 226.0901210471347 53.10371963385984 220.2868386698195 H 0.0 **** 0.06
22161 C 2.372324907309604 108.59465278627593 184.62363816081685 C 0.0 **** -0.24
22162 H 3.131028052161227 109.37630864484444 184.67319858108303 H 0.0 **** 0.06
22163 H 2.626444584071592 107.89199649588406 183.83042766510923 H 0.0 **** 0.06
22164 H 1.4015955402349363 109.04449833168141 184.41411953437162 H 0.0 **** 0.06
22165 H 2.330589984601076 108.06822027436246 185.57703239882196 H 0.0 **** 0.06
22166 C 38.859274791184305 168.05556932074683 82.96913607150955 C 0.0 **** -0.24
22167 H 37.831648578678596 167.9661712687218 82.61711061357437 H 0.0 **** 0.06
22168 H 39.03734101070681 169.0739254815598 83.31360626408537 H 0.0 **** 0.06
22169 H 39.54393222857318 167.82212836405952 82.15305329794197 H 0.0 **** 0.06
22170 H 39.022740983497954 167.35877022785127 83.79163677275082 H 0.0 **** 0.06
22171 C 227.15128053286423 128.91763267233853 196.32901753655386 C 0.0 **** -0.24
22172 H 226.58890247859114 128.00167996824626 196.14889776281328 H 0.0 **** 0.06
22173 H 228.1498538929177 128.66574944690595 196.68774677408805 H 0.0 **** 0.06
22174 H 226.63584546031112 129.5186037232846 197.0778312955705 H 0.0 **** 0.06
22175 H 227.23148197896364 129.483124984489 195.40011401547616 H 0.0 **** 0.06
22176 C 138.89042234677274 124.62181992894517 98.06601353489728 C 0.0 **** -0.24
22177 H 137.82537881555746 124.40892594037192 98.15398505454584 H 0.0 **** 0.06
22178 H 139.30589891850494 124.05383705052378 97.23333097718461 H 0.0 **** 0.06
22179 H 139.39492072623526 124.3380454704988 98.98856217416866 H 0.0 **** 0.06
22180 H 139.03336175803227 125.6875399020885 97.88665123359638 H 0.0 **** 0.06
22181 C 162.2267714178565 207.6699366268492 176.97142510696995 C 0.0 **** -0.24
22182 H 162.4340748792826 208.6217590793529 176.48137217872187 H 0.0 **** 0.06
22183 H 162.78142315099294 206.8756941533884 176.47054095925978 H 0.0 **** 0.06
22184 H 161.15921492512354 207.45836382185513 176.9162105610092 H 0.0 **** 0.06
22185 H 162.53319906400904 207.72480767806218 178.01569366805893 H 0.0 **** 0.06
22186 C 77.6203362895927 110.36443292983898 195.32949632293054 C 0.0 **** -0.24
22187 H 78.48542024999091 110.95015872990521 195.64112848125558 H 0.0 **** 0.06
22188 H 77.57026690394724 110.3412949641882 194.24083739499702 H 0.0 **** 0.06
22189 H 76.71219252074141 110.81883073296319 195.72567570304912 H 0.0 **** 0.06
22190 H 77.71406672848673 109.3473782459723 195.71162189737413 H 0.0 **** 0.06
22191 C 154.46881281139656 114.08992969645675 64.53734537163075 C 0.0 **** -0.24
22192 H 153.7203589730757 113.31790384764446 64.71729957267621 H 0.0 **** 0.06
22193 H 154.93593109468793 113.92208931556033 63.565973299333734 H 0.0 **** 0.06
22194 H 155.227181223052 114.05049727032107 65.31821090981595 H 0.0 **** 0.06
22195 H 153.98948439599684 115.0693834097992 64.54572826595322 H 0.0 **** 0.06
22196 C 94.84298918133524 45.3961205658409 173.14768731338756 C 0.0 **** -0.24
22197 H 94.39386274498463 45.40526866452774 174.1406592779901 H 0.0 **** 0.06
22198 H 94.85017967754015 44.37668433658125 172.76245538788683 H 0.0 **** 0.06
22199 H 95.86448214800399 45.76962522208618 173.20857200622177 H 0.0 **** 0.06
22200 H 94.26161057497103 46.03300631706732 172.48069703693974 H 0.0 **** 0.06
22201 C 57.8764202489003 34.2620959106159 122.41554186175969 C 0.0 **** -0.24
22202 H 57.26033661587249 33.54200450214191 121.87792686936402 H 0.0 **** 0.06
22203 H 58.74174608191362 33.753888094586785 122.84018003771624 H 0.0 **** 0.06
22204 H 57.29045704295791 34.713490794160805 123.21729891173592 H 0.0 **** 0.06
22205 H 58.210604085067274 35.03894694928039 121.7280106303136 H 0.0 **** 0.06
22206 C 34.97604496352025 153.34438013492306 89.8155479584739 C 0.0 **** -0.24
22207 H 34.38944857250587 152.58937254735585 89.29056719527412 H 0.0 **** 0.06
22208 H 35.96811139433365 153.40951747774383 89.36731263561464 H 0.0 **** 0.06
22209 H 35.06887825639407 153.06644829570072 90.86492512200897 H 0.0 **** 0.06
22210 H 34.47734927553685 154.3100138282921 89.73735114350106 H 0.0 **** 0.06
22211 C 147.33823242730435 21.60491353311059 27.30391031671408 C 0.0 **** -0.24
22212 H 147.98120284149317 22.102913862406027 26.577996898933492 H 0.0 **** 0.06
22213 H 146.82861549117493 20.768727017801524 26.824030884168508 H 0.0 **** 0.06
22214 H 146.60065701682936 22.312871052923754 27.681868294237717 H 0.0 **** 0.06
22215 H 147.94380272386695 21.234788589615533 28.131506665334967 H 0.0 **** 0.06
22216 C 165.87208399829788 95.10313969394647 161.22564313962945 C 0.0 **** -0.24
22217 H 166.8483328054771 94.67008208992152 161.0116386290737 H 0.0 **** 0.06
22218 H 165.2157452170811 94.9609982598914 160.36692444950117 H 0.0 **** 0.06
22219 H 165.9824282816856 96.16882492246376 161.42582230997942 H 0.0 **** 0.06
22220 H 165.44015288972457 94.61221992619957 162.09816756654544 H 0.0 **** 0.06
22221 C 19.38139328778776 57.549298421098115 144.14083775738712 C 0.0 **** -0.24
22222 H 18.783711804626904 57.03057863659856 144.88962556975062 H 0.0 **** 0.06
22223 H 19.0158199143586 57.296648156387505 143.14469442545897 H 0.0 **** 0.06
22224 H 20.42427640930923 57.24608390558038 144.23299697203996 H 0.0 **** 0.06
22225 H 19.30174498733696 58.62613813744895 144.2943270275492 H 0.0 **** 0.06
22226 C 175.2048715825966 206.15893455891086 155.59048659110957 C 0.0 **** -0.24
22227 H 176.05079057096884 206.24122932662863 156.27232689289795 H 0.0 **** 0.06
22228 H 174.86215078734836 205.12392466234607 155.56115139386642 H 0.0 **** 0.06
22229 H 175.51094373085095 206.46843631044166 154.5913179006159 H 0.0 **** 0.06
22230 H 174.39443780748385 206.80023951448203 155.93721648751136 H 0.0 **** 0.06
22231 C 130.54365606577298 85.333604751655 13.158968618626517 C 0.0 **** -0.24
22232 H 131.36750472824878 85.86745931028639 12.684375878455938 H 0.0 **** 0.06
22233 H 130.86473207028507 84.96087154452852 14.13195563330477 H 0.0 **** 0.06
22234 H 130.24375393473085 84.49588369194686 12.52924907109039 H 0.0 **** 0.06
22235 H 129.6990100071231 86.01076793195537 13.288412189502196 H 0.0 **** 0.06
22236 C 209.23240606225764 222.39863088904536 218.4774048597149 C 0.0 **** -0.24
22237 H 209.01801071530792 221.96041325239028 219.45215483151554 H 0.0 **** 0.06
22238 H 210.23436869788193 222.83031899592538 218.48661606539596 H 0.0 **** 0.06
22239 H 208.50257279790947 223.17786853896985 218.26073080101702 H 0.0 **** 0.06
22240 H 209.17741503557986 221.6246609416184 217.7123276939049 H 0.0 **** 0.06
22241 C 190.12083881163176 68.47146961682463 27.205887688120214 C 0.0 **** -0.24
22242 H 189.5807348506744 69.18078141825876 26.57811618762011 H 0.0 **** 0.06
22243 H 189.71943393128407 68.5058952645332 28.21903455429475 H 0.0 **** 0.06
22244 H 191.17853156312327 68.7348765454683 27.224009652241676 H 0.0 **** 0.06
22245 H 190.00313114704767 67.46662915356217 26.8012197866519 H 0.0 **** 0.06
22246 C 62.18718870287253 83.21638663576942 165.01170294258267 C 0.0 **** -0.24
22247 H 62.04490002410023 83.39087422951215 166.07854903639364 H 0.0 **** 0.06
22248 H 61.34255273037155 82.64531144726647 164.62256954652585 H 0.0 **** 0.06
22249 H 63.107764750575484 82.6552570970839 164.8556006153951 H 0.0 **** 0.06
22250 H 62.25007042798538 84.17218997706297 164.492606208343 H 0.0 **** 0.06
22251 C 215.28252372156038 197.42070894420738 160.5884255592432 C 0.0 **** -0.24
22252 H 214.33225264539954 196.95253684983481 160.33169546557633 H 0.0 **** 0.06
22253 H 216.0424456568114 197.12166947699126 159.86640643238798 H 0.0 **** 0.06
22254 H 215.58462124230667 197.1050873282096 161.58669788979958 H 0.0 **** 0.06
22255 H 215.1690935446803 198.50501507110732 160.5689474793295 H 0.0 **** 0.06
22256 C 12.769322830450676 139.6347263360255 113.78183586013375 C 0.0 **** -0.24
22257 H 12.599883279526892 140.56024446707968 114.33193493737272 H 0.0 **** 0.06
22258 H 13.84096463496806 139.4844529985821 113.6446084840934 H 0.0 **** 0.06
22259 H 12.282953826908226 139.69664391978404 112.80784613562875 H 0.0 **** 0.06
22260 H 12.353489580399469 138.797563958656 114.3429538834402 H 0.0 **** 0.06
22261 C 145.10401150459256 125.90629240558155 149.37308833335598 C 0.0 **** -0.24
22262 H 145.04873015765205 126.23550153491482 150.41126890633234 H 0.0 **** 0.06
22263 H 145.78338748297912 126.55811412634728 148.8218367439746 H 0.0 **** 0.06
22264 H 144.11254188077527 125.95136218507099 148.9242473219853 H 0.0 **** 0.06
22265 H 145.47370181493497 124.88170344018855 149.33708705490463 H 0.0 **** 0.06
22266 C 54.79094918887651 193.1187031980286 233.85537113007604 C 0.0 **** -0.24
22267 H 55.57159490973345 192.89601200551897 233.1285159500738 H 0.0 **** 0.06
22268 H 54.3934122712117 192.18649246373437 234.25846309100754 H 0.0 **** 0.06
22269 H 53.9892903737815 193.67451437051818 233.3680389402461 H 0.0 **** 0.06
22270 H 55.20759617335989 193.71674547645506 234.66533550255917 H 0.0 **** 0.06
22271 C 208.13376979324843 128.17502960928775 69.39939464807713 C 0.0 **** -0.24
22272 H 208.91704704993427 128.72488588932137 69.92095133475343 H 0.0 **** 0.06
22273 H 207.54806754540573 128.86590514720035 68.79236215778928 H 0.0 **** 0.06
22274 H 207.48430337236385 127.68990409876992 70.1266381809628 H 0.0 **** 0.06
22275 H 208.58680162652487 127.4204743004656 68.75601605256861 H 0.0 **** 0.06
22276 C 233.54424093403384 89.22075407812429 165.12548478184573 C 0.0 **** -0.24
22277 H 233.14574714405973 88.74369547676346 164.23109261846813 H 0.0 **** 0.06
22278 H 233.7098481019607 90.28073702908742 164.92812218012116 H 0.0 **** 0.06
22279 H 234.48888042534162 88.75066545482443 165.39802373669437 H 0.0 **** 0.06
22280 H 232.83363411633064 89.10993907722192 165.94392387264574 H 0.0 **** 0.06
22281 C 144.4613931144943 99.12567885474462 244.05908102107878 C 0.0 **** -0.24
22282 H 144.40833671897073 100.0924397026721 243.55808994921694 H 0.0 **** 0.06
22283 H 145.3985921640973 99.05543158531398 244.61305922618448 H 0.0 **** 0.06
22284 H 144.4182653055267 98.32962845756035 243.31634262994595 H 0.0 **** 0.06
22285 H 143.62309435979358 99.02662340927424 244.7480315105538 H 0.0 **** 0.06
22286 C 104.2312155679017 193.65084780678816 170.03569112956902 C 0.0 **** -0.24
22287 H 104.9873804647462 193.88311037146724 169.2867042769827 H 0.0 **** 0.06
22288 H 104.46708001883019 194.17204167128534 170.96404800888578 H 0.0 **** 0.06
22289 H 104.21761480123183 192.5754117063717 170.21632831991462 H 0.0 **** 0.06
22290 H 103.25326819104797 193.97179446251806 169.67698827081742 H 0.0 **** 0.06
22291 C 100.83974436938723 228.7032068647862 87.07262565957194 C 0.0 **** -0.24
22292 H 100.5218016849723 229.31940259909595 86.23193497324607 H 0.0 **** 0.06
22293 H 101.35641364360953 229.32474482648075 87.80342794799463 H 0.0 **** 0.06
22294 H 101.51422705543794 227.9241955877217 86.71627174558839 H 0.0 **** 0.06
22295 H 99.9672051762968 228.2441628244197 87.53730349775964 H 0.0 **** 0.06
22296 C 23.28001094311277 67.51913279384235 105.41522410809023 C 0.0 **** -0.24
22297 H 22.280413291393813 67.34672194176099 105.01715427152149 H 0.0 **** 0.06
22298 H 24.011957107412584 67.41851895153633 104.61325201046819 H 0.0 **** 0.06
22299 H 23.492164067110096 66.78862138467395 106.1956379074314 H 0.0 **** 0.06
22300 H 23.335741288780554 68.5246445848143 105.8338310220243 H 0.0 **** 0.06
22301 C 56.13175953996151 237.03867565450452 248.50228973347944 C 0.0 **** -0.24
22302 H 55.05797226923701 236.85063958570282 248.49050384636837 H 0.0 **** 0.06
22303 H 56.55723305036392 236.77290620174318 247.53384795774838 H 0.0 **** 0.06
22304 H 56.597587876215556 236.43632847563785 249.2822322996733 H 0.0 **** 0.06
22305 H 56.31362599821952 238.09518476288287 248.70135422610696 H 0.0 **** 0.06
22306 C 173.55583293904715 211.63115436741253 93.56591378959484 C 0.0 **** -0.24
22307 H 172.5264912042504 211.6568718094391 93.20896173323283 H 0.0 **** 0.06
22308 H 173.60804068775556 212.0849770726192 94.55595261692386 H 0.0 **** 0.06
22309 H 174.19426667331294 212.1845131359144 92.87763186784636 H 0.0 **** 0.06
22310 H 173.8946832899922 210.59619753232752 93.62197061716611 H 0.0 **** 0.06
22311 C 245.09001032631244 85.89961510430146 40.965046336879695 C 0.0 **** -0.24
22312 H 244.83084014544124 85.63708900241753 41.99092714686721 H 0.0 **** 0.06
22313 H 245.3370858622003 84.99421103201485 40.41046296436751 H 0.0 **** 0.06
22314 H 245.94902740583524 86.57072137807876 40.9678026707132 H 0.0 **** 0.06
22315 H 244.24249316921373 86.39588570539698 40.492150228924274 H 0.0 **** 0.06
22316 C 248.34436112064228 24.655578279038465 5.744988383143522 C 0.0 **** -0.24
22317 H 248.22843268765493 24.420383700380853 6.803200404520425 H 0.0 **** 0.06
22318 H 247.52435312767344 24.20848744833596 5.181589532072877 H 0.0 **** 0.06
22319 H 249.2923504197786 24.255472505938883 5.38529236069283 H 0.0 **** 0.06
22320 H 248.3314140220392 25.736497793547386 5.609685268763258 H 0.0 **** 0.06
22321 C 34.238328843456316 28.426099348911535 14.634024064694884 C 0.0 **** -0.24
22322 H 33.63740162539594 28.949884234451986 13.890865644248692 H 0.0 **** 0.06
22323 H 34.02071456435367 28.828008958702142 15.624105511005027 H 0.0 **** 0.06
22324 H 35.29527460753377 28.564729414204777 14.40894648865671 H 0.0 **** 0.06
22325 H 33.9981717041061 27.36316302651018 14.612195394251444 H 0.0 **** 0.06
22326 C 199.93578984787206 97.37449836361333 13.709134533537522 C 0.0 **** -0.24
22327 H 199.5552072363064 96.37641981207773 13.492068529803376 H 0.0 **** 0.06
22328 H 200.19733966826254 97.87389443376401 12.775552272528913 H 0.0 **** 0.06
22329 H 200.820972500162 97.29628137807325 14.339774158999774 H 0.0 **** 0.06
22330 H 199.1690582687877 97.95075087186964 14.227342315345908 H 0.0 **** 0.06
22331 C 237.1637275022027 135.40979705356426 135.74421423371007 C 0.0 **** -0.24
22332 H 237.3569612917993 135.19852031105324 134.69204484678116 H 0.0 **** 0.06
22333 H 236.28927090455198 136.0545129045581 135.83061270815392 H 0.0 **** 0.06
22334 H 238.02960033801202 135.9103489401757 136.17841881345586 H 0.0 **** 0.06
22335 H 236.98050784035695 134.47488325261452 136.27433055561977 H 0.0 **** 0.06
22336 C 229.20331481578054 68.7547697798664 165.2547837890703 C 0.0 **** -0.24
22337 H 230.10360841669885 68.14126266032287 165.27872140651436 H 0.0 **** 0.06
22338 H 228.61426298995792 68.50125561904684 164.3730332053014 H 0.0 **** 0.06
22339 H 229.48301516795067 69.80776361040503 165.2142587298073 H 0.0 **** 0.06
22340 H 228.61270573678053 68.56956622042344 166.15257615740012 H 0.0 **** 0.06
22341 C 207.4436712262825 2.2148794470833195 167.6245929642211 C 0.0 **** -0.24
22342 H 207.01763105929263 1.41203507286707 167.022183415519 H 0.0 **** 0.06
22343 H 207.46565013477078 1.9092499166920618 168.67078801766277 H 0.0 **** 0.06
22344 H 206.8321435016806 3.11077346178034 167.52022668849364 H 0.0 **** 0.06
22345 H 208.45710149626308 2.424416097033941 167.2848930493988 H 0.0 **** 0.06
22346 C 175.80803068670247 8.787269527617454 46.603949003005965 C 0.0 **** -0.24
22347 H 175.9347512370768 8.6472543768448 45.530052249753254 H 0.0 **** 0.06
22348 H 175.51931536316982 7.841655328138884 47.06192040904702 H 0.0 **** 0.06
22349 H 175.0320166044234 9.531221100198664 46.78224865102217 H 0.0 **** 0.06
22350 H 176.74700728908897 9.130621193148386 47.037933036262814 H 0.0 **** 0.06
22351 C 2.4116845256755255 124.97865633175147 139.69881527596 C 0.0 **** -0.24
22352 H 3.007300303445959 125.88361135050829 139.81239262288915 H 0.0 **** 0.06
22353 H 2.770397073923675 124.21876542867454 140.3942566525131 H 0.0 **** 0.06
22354 H 2.5033596471462545 124.60926740289881 138.67784904152887 H 0.0 **** 0.06
22355 H 1.3663342108607281 125.20195254476698 139.91199381438133 H 0.0 **** 0.06
22356 C 106.40441108369652 175.1969929603397 135.79959758509207 C 0.0 **** -0.24
22357 H 106.2379124799929 174.119746523113 135.77432102496442 H 0.0 **** 0.06
22358 H 105.84986071518449 175.6694012972087 134.98843186418773 H 0.0 **** 0.06
22359 H 107.46775848301951 175.40245141338121 135.68303135516845 H 0.0 **** 0.06
22360 H 106.06011277147906 175.59429168038787 136.75476719017763 H 0.0 **** 0.06
22361 C 176.6147155234905 184.49161723124442 97.72019366330375 C 0.0 **** -0.24
22362 H 177.06178218656638 185.4353564072959 97.409308915781 H 0.0 **** 0.06
22363 H 175.73390470819967 184.28744231680466 97.10952312714548 H 0.0 **** 0.06
22364 H 176.32265828558886 184.5563982001109 98.76847967760898 H 0.0 **** 0.06
22365 H 177.33910735724706 183.68721748847673 97.59356392155598 H 0.0 **** 0.06
22366 C 59.791814424507294 170.31953133877136 241.23280827920507 C 0.0 **** -0.24
22367 H 59.64872449974288 171.0290208856067 240.41786814385858 H 0.0 **** 0.06
22368 H 58.839557820215504 169.84775099906273 241.47541133132546 H 0.0 **** 0.06
22369 H 60.17236939457868 170.84348180913483 242.10878509087092 H 0.0 **** 0.06
22370 H 60.507504829484304 169.55668916340727 240.92676150848058 H 0.0 **** 0.06
22371 C 150.53793335815436 167.75630489291459 209.22276609199824 C 0.0 **** -0.24
22372 H 150.8566470285258 168.74593355146612 208.8961267205073 H 0.0 **** 0.06
22373 H 149.72193374548044 167.4097996425392 208.58742655521885 H 0.0 **** 0.06
22374 H 150.19711931826058 167.8064905424322 210.25650530085653 H 0.0 **** 0.06
22375 H 151.3753546245959 167.06278365538665 209.14978335772398 H 0.0 **** 0.06
22376 C 141.01042142635444 202.99875955716186 159.45505395183912 C 0.0 **** -0.24
22377 H 140.80642482721512 202.53503586392557 158.49031549721238 H 0.0 **** 0.06
22378 H 140.95916132616594 202.2438012058462 160.23974934575935 H 0.0 **** 0.06
22379 H 140.26921456770262 203.77504123024613 159.64785886934163 H 0.0 **** 0.06
22380 H 142.00624136112893 203.44308193969738 159.44134781155168 H 0.0 **** 0.06
22381 C 123.42633850169372 245.1891837956437 7.504117133725245 C 0.0 **** -0.24
22382 H 123.15585961983632 244.94243312458667 6.477165890765946 H 0.0 **** 0.06
22383 H 123.03597360594327 246.1759397580324 7.754260079213452 H 0.0 **** 0.06
22384 H 124.51213013693769 245.19280578512183 7.601281828715372 H 0.0 **** 0.06
22385 H 123.00320145001075 244.44750345070213 8.180609452648383 H 0.0 **** 0.06
22386 C 237.23594470572 12.974687897721196 24.180289257309795 C 0.0 **** -0.24
22387 H 237.97698067566887 12.326052333744315 24.649052715822194 H 0.0 **** 0.06
22388 H 237.55392900082123 13.215736141500031 23.16585823298891 H 0.0 **** 0.06
22389 H 237.14006489317808 13.893360190394276 24.759020498103695 H 0.0 **** 0.06
22390 H 236.2738885553699 12.46323551503292 24.148055834117827 H 0.0 **** 0.06
22391 C 125.62052772240321 129.7521119531345 130.55520011866867 C 0.0 **** -0.24
22392 H 125.71643919286893 130.58070663479583 131.2557237776693 H 0.0 **** 0.06
22393 H 126.36383784943064 129.8570848216707 129.76504297050602 H 0.0 **** 0.06
22394 H 124.62210814181347 129.76026476994346 130.1173685910064 H 0.0 **** 0.06
22395 H 125.77909229856627 128.8105780098364 131.08106386378904 H 0.0 **** 0.06
22396 C 88.3899364286604 205.83406928986307 184.44321422508244 C 0.0 **** -0.24
22397 H 88.54617379756414 205.03780175018954 183.71579312701226 H 0.0 **** 0.06
22398 H 87.3587181479094 205.8079170592929 184.7942106345473 H 0.0 **** 0.06
22399 H 88.5913445228231 206.79753733059292 183.97580682741855 H 0.0 **** 0.06
22400 H 89.06554621861977 205.69109291578184 185.2874113296777 H 0.0 **** 0.06
22401 C 127.14950119218133 227.52877319952637 126.53630663147402 C 0.0 **** -0.24
22402 H 126.58538466318839 228.3142896375207 126.03506315681346 H 0.0 **** 0.06
22403 H 126.9101425724433 226.56506407435418 126.08627913603337 H 0.0 **** 0.06
22404 H 126.8860830253519 227.51110720937146 127.59397120670252 H 0.0 **** 0.06
22405 H 128.2163727730248 227.72432006746018 126.4312922732338 H 0.0 **** 0.06
22406 C 98.65378907407325 110.28360772342131 203.27861826183894 C 0.0 **** -0.24
22407 H 98.53701786648773 109.92752976671403 204.3025487039397 H 0.0 **** 0.06
22408 H 97.88125082979982 109.84069347082337 202.650310859619 H 0.0 **** 0.06
22409 H 99.63589115306212 109.99675406816795 202.9041105237756 H 0.0 **** 0.06
22410 H 98.560829316753 111.36992282975359 203.25916184786266 H 0.0 **** 0.06
22411 C 74.04572139168795 39.043001572832836 138.97399165503987 C 0.0 **** -0.24
22412 H 75.10319500433951 38.92903498622678 138.7368382475589 H 0.0 **** 0.06
22413 H 73.58048517156425 38.06046724934782 139.04088047389314 H 0.0 **** 0.06
22414 H 73.5585028050439 39.62386863974068 138.19069536959526 H 0.0 **** 0.06
22415 H 73.94099225245975 39.560835924608526 139.92728067648588 H 0.0 **** 0.06
22416 C 75.22612741840223 12.416921661524896 30.538060109197502 C 0.0 **** -0.24
22417 H 74.99432224935356 12.54187803660382 29.480955656236276 H 0.0 **** 0.06
22418 H 75.62528895851167 11.417341849252836 30.707797627265535 H 0.0 **** 0.06
22419 H 74.31874518346964 12.55167848073286 31.127313581386645 H 0.0 **** 0.06
22420 H 75.96635665758387 13.159636720750271 30.837092869798 H 0.0 **** 0.06
22421 C 238.7415803679241 207.29297791491842 171.0211786224639 C 0.0 **** -0.24
22422 H 238.33778410283065 208.1455514004174 170.47397335066688 H 0.0 **** 0.06
22423 H 238.110445863961 207.08329554441497 171.88508840691503 H 0.0 **** 0.06
22424 H 239.7526541173159 207.52495512345195 171.3575727784556 H 0.0 **** 0.06
22425 H 238.76670262763878 206.4214629485911 170.3676871565675 H 0.0 **** 0.06
22426 C 6.305133588463008 203.7508710864824 138.19288360591213 C 0.0 **** -0.24
22427 H 5.460170397323367 204.27718236211973 138.6378018273364 H 0.0 **** 0.06
22428 H 6.88076130340832 203.25947491148366 138.97712597891444 H 0.0 **** 0.06
22429 H 6.941833406782081 204.4637174593219 137.66779602241465 H 0.0 **** 0.06
22430 H 5.938345931180976 203.00438494990868 137.4890130050791 H 0.0 **** 0.06
22431 C 82.40672201530901 94.49875937902067 140.6568791124808 C 0.0 **** -0.24
22432 H 82.01655189351095 95.19532088452436 139.91469859824048 H 0.0 **** 0.06
22433 H 82.15416299306494 93.47851947643758 140.36544461694464 H 0.0 **** 0.06
22434 H 81.96515167201375 94.71847538949146 141.6293219558027 H 0.0 **** 0.06
22435 H 83.4902748622032 94.60135068120485 140.71730115577077 H 0.0 **** 0.06
22436 C 67.96413112817612 120.78230804195817 227.11093796067348 C 0.0 **** -0.24
22437 H 68.93385272383512 121.25881103890632 227.24966962913413 H 0.0 **** 0.06
22438 H 67.70572335633332 120.2165573616239 228.00602296192 H 0.0 **** 0.06
22439 H 68.00983910910418 120.10816868221627 226.2551964807716 H 0.0 **** 0.06
22440 H 67.20627313450387 121.54514283223375 226.9314500309501 H 0.0 **** 0.06
22441 C 119.79129125480944 49.846005512547805 73.00974793071316 C 0.0 **** -0.24
22442 H 118.9284015555757 50.48486307793323 72.82224341090378 H 0.0 **** 0.06
22443 H 119.45133618533748 48.83339478446695 73.23056153719546 H 0.0 **** 0.06
22444 H 120.35382624775096 50.234635240392066 73.85861946693402 H 0.0 **** 0.06
22445 H 120.43037628651803 49.830270278316476 72.12669397018811 H 0.0 **** 0.06
22446 C 51.48479226451619 102.70864987980093 244.52264357487388 C 0.0 **** -0.24
22447 H 50.89281009432402 102.17778178117138 243.77650903631172 H 0.0 **** 0.06
22448 H 51.313043099264576 102.2654008818111 245.50370530710535 H 0.0 **** 0.06
22449 H 51.18897379312638 103.75724984146319 244.54094971191017 H 0.0 **** 0.06
22450 H 52.541338300186155 102.63256308470432 244.26822496202158 H 0.0 **** 0.06
22451 C 104.93218515950147 115.79022862934369 187.24650046151356 C 0.0 **** -0.24
22452 H 104.72797148379252 114.76251702423332 187.54975154147616 H 0.0 **** 0.06
22453 H 104.08859788246431 116.42313777888302 187.51855939863134 H 0.0 **** 0.06
22454 H 105.0813687224315 115.82708843168166 186.1674827663196 H 0.0 **** 0.06
22455 H 105.83104788393243 116.14445851782696 187.74981402649126 H 0.0 **** 0.06
22456 C 40.30644500089603 221.61294870664477 152.82048098581453 C 0.0 **** -0.24
22457 H 40.36120937011188 222.53718478616253 152.24520791786932 H 0.0 **** 0.06
22458 H 41.293776255385026 221.15325720592557 152.8637855614659 H 0.0 **** 0.06
22459 H 39.6059286367623 220.92811983090456 152.34258266653802 H 0.0 **** 0.06
22460 H 39.96417129848541 221.83584691047741 153.83164599904345 H 0.0 **** 0.06
22461 C 190.7659391631158 60.74377509632404 194.6723270437856 C 0.0 **** -0.24
22462 H 190.26521524001146 61.710319216462494 194.60143555083087 H 0.0 **** 0.06
22463 H 191.4843663783878 60.6468712243921 193.8586087013849 H 0.0 **** 0.06
22464 H 190.02626915917432 59.94619319848505 194.60158828479942 H 0.0 **** 0.06
22465 H 191.28591780625564 60.67314751540539 195.62765239342784 H 0.0 **** 0.06
22466 C 168.67090689923847 143.94822103393628 182.30347822560378 C 0.0 **** -0.24
22467 H 168.63596899126358 144.6146278926484 183.16529654159928 H 0.0 **** 0.06
22468 H 169.2550095824851 143.06199784119104 182.5541594770674 H 0.0 **** 0.06
22469 H 169.1352600277941 144.46368857826496 181.46365685324866 H 0.0 **** 0.06
22470 H 167.6571445178318 143.65084882784333 182.0325258527975 H 0.0 **** 0.06
22471 C 9.736238823181523 193.86510434282349 65.19051425785011 C 0.0 **** -0.24
22472 H 8.679081780023282 194.01731011493678 65.40748880795357 H 0.0 **** 0.06
22473 H 9.85164655768638 193.5413160659116 64.15573709170297 H 0.0 **** 0.06
22474 H 10.137066510893106 193.10182624390157 65.85740950942937 H 0.0 **** 0.06
22475 H 10.276128827037383 194.7996150734731 65.34232349508673 H 0.0 **** 0.06
22476 C 46.63741206012466 89.03708868858763 96.68921159872718 C 0.0 **** -0.24
22477 H 47.145099214031546 89.84702959969704 96.1653814318116 H 0.0 **** 0.06
22478 H 45.56215677809851 89.11831720299469 96.52939427166166 H 0.0 **** 0.06
22479 H 46.85215247416804 89.10327098045278 97.75589807090549 H 0.0 **** 0.06
22480 H 46.99113086294173 88.07969146719748 96.30662417338175 H 0.0 **** 0.06
22481 C 218.31207219922356 173.6764724519927 20.36129773921658 C 0.0 **** -0.24
22482 H 217.4114296474547 173.17060435162713 20.710824618002448 H 0.0 **** 0.06
22483 H 219.18329445809792 173.06014462378616 20.58260375033312 H 0.0 **** 0.06
22484 H 218.40754541729535 174.63709144837253 20.867361545988558 H 0.0 **** 0.06
22485 H 218.24333055434624 173.83743787472594 19.285582960556567 H 0.0 **** 0.06
22486 C 34.2061338438713 84.51257526875793 128.45660769564844 C 0.0 **** -0.24
22487 H 34.263236489475844 83.69729920235002 127.73496734319846 H 0.0 **** 0.06
22488 H 34.85598020640529 85.32747995454167 128.13620227080435 H 0.0 **** 0.06
22489 H 34.52519051112549 84.15466592865724 129.43505458135337 H 0.0 **** 0.06
22490 H 33.177790797063295 84.8705600795391 128.51834937970756 H 0.0 **** 0.06
22491 C 14.803622755627572 189.97395421951484 71.81386261815476 C 0.0 **** -0.24
22492 H 15.671609551938758 189.31564053204903 71.82956513008918 H 0.0 **** 0.06
22493 H 15.088451686193679 190.95991390920062 72.18317624451876 H 0.0 **** 0.06
22494 H 14.022285785801927 189.5595192357388 72.45185616382798 H 0.0 **** 0.06
22495 H 14.431691740438936 190.0610996926752 70.79379715970958 H 0.0 **** 0.06
22496 C 105.38169302216625 200.40076012449217 193.72052966236362 C 0.0 **** -0.24
22497 H 104.4150956312597 200.32846528808096 194.21963537746086 H 0.0 **** 0.06
22498 H 105.40790360045787 199.7085641437833 192.87836144380748 H 0.0 **** 0.06
22499 H 106.17360026447432 200.1469127941142 194.4247206982676 H 0.0 **** 0.06
22500 H 105.52773854864876 201.41889687457206 193.3592142391309 H 0.0 **** 0.06
22501 C 39.35416090193479 86.12482500904727 174.59287322936785 C 0.0 **** -0.24
22502 H 38.93615684265475 86.61678580083142 175.47133367706368 H 0.0 **** 0.06
22503 H 40.21781214040354 86.68816397921387 174.238340691838 H 0.0 **** 0.06
22504 H 38.6001344297665 86.08287249038821 173.80645308655284 H 0.0 **** 0.06
22505 H 39.662749280442924 85.11318770345025 174.8555455329337 H 0.0 **** 0.06
22506 C 70.51244308028518 88.22317032732263 156.828206910847 C 0.0 **** -0.24
22507 H 71.33829788495353 87.9214307607962 156.18485503685756 H 0.0 **** 0.06
22508 H 70.6668221995055 89.2506445815144 157.15982163794362 H 0.0 **** 0.06
22509 H 70.46808793897657 87.56434822291507 157.69577513925518 H 0.0 **** 0.06
22510 H 69.57659787808598 88.1568046364398 156.27454373841076 H 0.0 **** 0.06
22511 C 188.6196529129941 55.84056269188312 209.5688493346346 C 0.0 **** -0.24
22512 H 189.46185596636937 55.7924945369291 210.26019009915933 H 0.0 **** 0.06
22513 H 187.9488118511927 55.001236188238494 209.75629765829444 H 0.0 **** 0.06
22514 H 188.98705490755032 55.792253290103844 208.54406080065542 H 0.0 **** 0.06
22515 H 188.08151292086671 56.776163902881876 209.71853662394747 H 0.0 **** 0.06
22516 C 51.269002249232614 223.7012074756919 105.80876481516927 C 0.0 **** -0.24
22517 H 50.676105807633206 222.95374096010974 106.3367848865496 H 0.0 **** 0.06
22518 H 50.60524442266532 224.43865908626958 105.35756393119408 H 0.0 **** 0.06
22519 H 51.85641115856035 223.2153723211065 105.03041236715731 H 0.0 **** 0.06
22520 H 51.93751413927916 224.19664826994733 106.51237041119876 H 0.0 **** 0.06
22521 C 55.17456602207582 144.7901328375659 40.734673582126874 C 0.0 **** -0.24
22522 H 54.75371735937327 143.786957007958 40.666525014929476 H 0.0 **** 0.06
22523 H 54.86928137698524 145.2482400532094 41.676709492681 H 0.0 **** 0.06
22524 H 54.81097946113192 145.39384519512055 39.90297786023871 H 0.0 **** 0.06
22525 H 56.261754894563126 144.7316665951802 40.69408278511612 H 0.0 **** 0.06
22526 C 216.49747365565884 214.3431841626276 113.78118857851615 C 0.0 **** -0.24
22527 H 215.78092831922197 214.73125453383682 114.50478842117582 H 0.0 **** 0.06
22528 H 217.37870067101562 213.9721243134531 114.30438462552104 H 0.0 **** 0.06
22529 H 216.7895799044244 215.1399789939257 113.0968615300335 H 0.0 **** 0.06
22530 H 216.03936375103746 213.5299160210198 113.21699815979284 H 0.0 **** 0.06
22531 C 76.28479390296215 232.44025065409548 65.77621775403634 C 0.0 **** -0.24
22532 H 77.12770617485896 231.80689002761403 66.05335993990789 H 0.0 **** 0.06
22533 H 75.72488064427043 231.96715121913007 64.96901601704596 H 0.0 **** 0.06
22534 H 76.65319236356785 233.41054800334928 65.44393595726126 H 0.0 **** 0.06
22535 H 75.63380850879943 232.57579882672115 66.63923181377157 H 0.0 **** 0.06
22536 C 196.75647161410055 240.7176699037031 104.48005618331695 C 0.0 **** -0.24
22537 H 196.9292080114812 239.6673766642799 104.24633024932075 H 0.0 **** 0.06
22538 H 197.24203661726807 240.96368693228345 105.4245623088639 H 0.0 **** 0.06
22539 H 195.68504816229495 240.89830624259292 104.56510832152398 H 0.0 **** 0.06
22540 H 197.16809414067728 241.3393224475702 103.6858977832018 H 0.0 **** 0.06
22541 C 168.9940997542808 69.06690577766906 201.24351845827888 C 0.0 **** -0.24
22542 H 168.3952149547504 69.74641578392533 201.8505742425686 H 0.0 **** 0.06
22543 H 168.3502337914588 68.5580453750294 200.52676447455448 H 0.0 **** 0.06
22544 H 169.47372957998834 68.33130619550496 201.88918637094133 H 0.0 **** 0.06
22545 H 169.75706600127054 69.63317483747352 200.70934767374231 H 0.0 **** 0.06
22546 C 202.9823822459339 42.787865183688055 226.20970152248617 C 0.0 **** -0.24
22547 H 203.79653520917762 42.083196745651335 226.04079056285255 H 0.0 **** 0.06
22548 H 202.3915513996684 42.885587089939236 225.29910122242222 H 0.0 **** 0.06
22549 H 203.39405133713382 43.759910839259106 226.48297314713528 H 0.0 **** 0.06
22550 H 202.3484905874505 42.42232475551765 227.0175524551046 H 0.0 **** 0.06
22551 C 86.70022271830183 183.63558170768772 148.38324453785313 C 0.0 **** -0.24
22552 H 85.70304799292427 183.48543407977857 148.79584945375495 H 0.0 **** 0.06
22553 H 86.907608858115 182.86100521415472 147.64433803355917 H 0.0 **** 0.06
22554 H 87.43712235893705 183.58190247853287 149.18416090171704 H 0.0 **** 0.06
22555 H 86.75222908963292 184.61467644147098 147.90669505263008 H 0.0 **** 0.06
22556 C 141.79992964531593 247.59057058062962 82.70529948355605 C 0.0 **** -0.24
22557 H 141.1030577204559 248.3941509094962 82.4678468754945 H 0.0 **** 0.06
22558 H 142.80233542933178 248.00259437896995 82.82573457976287 H 0.0 **** 0.06
22559 H 141.8011111600127 246.86058566538716 81.89563461470763 H 0.0 **** 0.06
22560 H 141.49205760746372 247.1054705178098 83.63135526069027 H 0.0 **** 0.06
22561 C 80.45783807901927 192.4689765924383 58.90483611786959 C 0.0 **** -0.24
22562 H 80.79130670650355 193.38753511957032 59.387039881465654 H 0.0 **** 0.06
22563 H 81.07313029675933 192.27650107054953 58.025265062895784 H 0.0 **** 0.06
22564 H 79.41577484022716 192.57431898290213 58.60368208397276 H 0.0 **** 0.06
22565 H 80.55253158694521 191.63770239660292 59.6031526043875 H 0.0 **** 0.06
22566 C 190.10575009327022 6.787361121342116 26.22474336166482 C 0.0 **** -0.24
22567 H 190.1099183287078 7.535681425089848 25.43172134086052 H 0.0 **** 0.06
22568 H 191.04413580285427 6.231225914401847 26.204384535689982 H 0.0 **** 0.06
22569 H 189.2725738198058 6.101214192164377 26.07250585480385 H 0.0 **** 0.06
22570 H 189.99779992395128 7.282018158673196 27.189669648375457 H 0.0 **** 0.06
22571 C 11.42354477451758 237.2154805496032 31.89847345010972 C 0.0 **** -0.24
22572 H 10.71024268984499 237.52840231415962 32.66090552809649 H 0.0 **** 0.06
22573 H 12.418283686869216 237.14479182465251 32.33818149753378 H 0.0 **** 0.06
22574 H 11.433524132984559 237.94601485914433 31.088860817278743 H 0.0 **** 0.06
22575 H 11.13018246546639 236.24217735256912 31.504983917319322 H 0.0 **** 0.06
22576 C 119.11191962781996 106.998560460432 160.9937919104949 C 0.0 **** -0.24
22577 H 119.92431671376445 106.51962798932865 160.44790435368435 H 0.0 **** 0.06
22578 H 118.18966972099705 106.43691696354674 160.84154450921778 H 0.0 **** 0.06
22579 H 118.98101807213138 108.01808128343285 160.62987481565662 H 0.0 **** 0.06
22580 H 119.35201249251145 107.02046596673469 162.05720017759455 H 0.0 **** 0.06
22581 C 120.067635783854 90.99178037212235 164.80743208813612 C 0.0 **** -0.24
22582 H 119.21977333783184 91.59397793374615 165.1334871996529 H 0.0 **** 0.06
22583 H 120.96712508377422 91.31891026167472 165.32940680795127 H 0.0 **** 0.06
22584 H 120.20679230180212 91.1134580871223 163.73248716788888 H 0.0 **** 0.06
22585 H 119.8778096001484 89.9423525653745 165.03273603257531 H 0.0 **** 0.06
22586 C 235.89711844035963 53.35408434536646 7.571315929730261 C 0.0 **** -0.24
22587 H 235.79462672019073 52.9461096883866 6.565829135116786 H 0.0 **** 0.06
22588 H 236.4776825050035 52.66595952311738 8.18537306091973 H 0.0 **** 0.06
22589 H 234.90860489771126 53.488226250917194 8.010911763538914 H 0.0 **** 0.06
22590 H 236.4065512240292 54.31639866603939 7.522224637059054 H 0.0 **** 0.06
22591 C 53.08219209144852 165.4864724830876 119.12715472204778 C 0.0 **** -0.24
22592 H 53.067267780657346 164.78414102139396 119.95916273211088 H 0.0 **** 0.06
22593 H 52.651612583348395 165.01367967270505 118.24351631707867 H 0.0 **** 0.06
22594 H 54.11128847339967 165.780258130885 118.91746635637668 H 0.0 **** 0.06
22595 H 52.498277248296546 166.36960695084912 119.38718076052982 H 0.0 **** 0.06
22596 C 105.69345873700837 22.52627032706107 89.11843550978529 C 0.0 **** -0.24
22597 H 106.42689817350518 21.920130804918713 89.65021463873381 H 0.0 **** 0.06
22598 H 106.18415925790251 23.059376201999243 88.30383333788618 H 0.0 **** 0.06
22599 H 105.24775502123106 23.243827782540777 89.80629018271677 H 0.0 **** 0.06
22600 H 104.91475639675156 21.88016370361032 88.71275279083534 H 0.0 **** 0.06
22601 C 3.171946241116217 219.69321764348274 9.439315370314176 C 0.0 **** -0.24
22602 H 2.6805767947284096 220.2847529275053 8.667592860347966 H 0.0 **** 0.06
22603 H 3.045163407691547 220.18212671188184 10.406148666324881 H 0.0 **** 0.06
22604 H 4.23407168425112 219.60753527968302 9.21152459523158 H 0.0 **** 0.06
22605 H 2.725650362970242 218.6995923159593 9.47381555021343 H 0.0 **** 0.06
22606 C 37.6644445672448 14.165496712091937 122.4715338104208 C 0.0 **** -0.24
22607 H 37.99045555441772 15.123064189796452 122.06514737667976 H 0.0 **** 0.06
22608 H 36.66041477523238 14.269119607144347 122.88431832097876 H 0.0 **** 0.06
22609 H 38.34999022850495 13.853367274597957 123.25925516196773 H 0.0 **** 0.06
22610 H 37.656694651531836 13.417550007751657 121.67872157875817 H 0.0 **** 0.06
22611 C 191.7223049236935 156.33995757077426 199.79942353960024 C 0.0 **** -0.24
22612 H 192.36588547044235 156.39934569381148 200.6771306089832 H 0.0 **** 0.06
22613 H 191.10524783767812 155.44345700942068 199.86149500902047 H 0.0 **** 0.06
22614 H 192.33742085875465 156.29683721463877 198.90093281364415 H 0.0 **** 0.06
22615 H 191.0806267470491 157.2210177141834 199.7586960833238 H 0.0 **** 0.06
22616 C 106.96538835467513 62.6774547009488 113.32372924179069 C 0.0 **** -0.24
22617 H 107.37393530635936 61.94365413058392 114.01839583709335 H 0.0 **** 0.06
22618 H 106.41226043832523 62.16497501789701 112.53640043165458 H 0.0 **** 0.06
22619 H 107.77882151036411 63.25211383189131 112.8824754157614 H 0.0 **** 0.06
22620 H 106.29460106411736 63.35070978084062 113.85978670275748 H 0.0 **** 0.06
22621 C 150.70821507407695 214.84312851495886 168.75215887262257 C 0.0 **** -0.24
22622 H 150.04048885959446 214.88415206009415 167.89198950920226 H 0.0 **** 0.06
22623 H 151.4952100770142 215.58916527377392 168.63672664081918 H 0.0 **** 0.06
22624 H 151.1540340360932 213.85098604223427 168.81898948511926 H 0.0 **** 0.06
22625 H 150.14229978118564 215.04865866405152 169.66059148142247 H 0.0 **** 0.06
22626 C 136.74188760645367 243.44103597326358 54.73484105239848 C 0.0 **** -0.24
22627 H 136.48506321265106 244.45429844175948 54.42473626886593 H 0.0 **** 0.06
22628 H 136.87629481527452 242.81491740889274 53.85290805460042 H 0.0 **** 0.06
22629 H 135.93845275834323 243.0358920500123 55.350276197915434 H 0.0 **** 0.06
22630 H 137.66686882607857 243.4612847938622 55.31187337911197 H 0.0 **** 0.06
22631 C 124.34278909024692 65.67761737043864 229.99328238949067 C 0.0 **** -0.24
22632 H 124.6866366608972 65.0741258581447 230.8336742133062 H 0.0 **** 0.06
22633 H 124.77151397776484 65.29047442968076 229.06896432585032 H 0.0 **** 0.06
22634 H 124.65758021887734 66.71133654890187 230.1352146678919 H 0.0 **** 0.06
22635 H 123.25527715657074 65.63317307893337 229.93563634079698 H 0.0 **** 0.06
22636 C 183.01027210392547 231.07908267444185 175.96100846293456 C 0.0 **** -0.24
22637 H 182.45458138891416 231.3832761691957 175.0742758587299 H 0.0 **** 0.06
22638 H 182.660655115593 231.64968528471974 176.82206665071755 H 0.0 **** 0.06
22639 H 184.0723506126841 231.26864263617486 175.8073991347279 H 0.0 **** 0.06
22640 H 182.85316860976593 230.01580977707422 176.14113842368863 H 0.0 **** 0.06
22641 C 240.2549151828141 202.8425160726391 68.03914322211773 C 0.0 **** -0.24
22642 H 240.52895286170477 203.85616189332578 68.33280642498804 H 0.0 **** 0.06
22643 H 239.38026853652283 202.87726006431834 67.39059819223709 H 0.0 **** 0.06
22644 H 240.0257062285263 202.25640898509135 68.92986782566305 H 0.0 **** 0.06
22645 H 241.08624977768375 202.38226040991955 67.50491004470894 H 0.0 **** 0.06
22646 C 26.681393779956352 128.24688862516598 81.33473893334218 C 0.0 **** -0.24
22647 H 25.814561774351517 128.65980383906418 81.8507814414358 H 0.0 **** 0.06
22648 H 27.406099845067473 127.89329039520135 82.06883088257817 H 0.0 **** 0.06
22649 H 27.13719472475654 129.0194846308035 80.71680409513851 H 0.0 **** 0.06
22650 H 26.36658156196583 127.41561210771928 80.70308855710152 H 0.0 **** 0.06
22651 C 129.14712451215553 4.320607159802037 62.77652417806402 C 0.0 **** -0.24
22652 H 129.11886286662417 4.675241696026404 63.80682762561531 H 0.0 **** 0.06
22653 H 128.1396739600331 4.048468495396293 62.45883011239101 H 0.0 **** 0.06
22654 H 129.79700546383685 3.4475142470199955 62.71199441638612 H 0.0 **** 0.06
22655 H 129.53215899958408 5.108580330361832 62.130785627387496 H 0.0 **** 0.06
22656 C 25.71800996342401 155.4801975893955 118.42215693504374 C 0.0 **** -0.24
22657 H 25.779653217569802 156.54978625147604 118.62180103859407 H 0.0 **** 0.06
22658 H 26.544649950004356 154.97055917542457 118.91709186803564 H 0.0 **** 0.06
22659 H 25.776476343341955 155.30742140894534 117.34696129947145 H 0.0 **** 0.06
22660 H 24.772760237632127 155.09395009444407 118.80107299390266 H 0.0 **** 0.06
22661 C 242.1579686381388 100.27430982706787 166.91435224688337 C 0.0 **** -0.24
22662 H 241.82766021662508 99.67176724278156 166.069061565534 H 0.0 **** 0.06
22663 H 241.44214801038075 100.17749303510331 167.73164468087705 H 0.0 **** 0.06
22664 H 242.22446259961674 101.3194735264492 166.61177669275978 H 0.0 **** 0.06
22665 H 243.13641924514232 99.92883263612353 167.2470450217497 H 0.0 **** 0.06
22666 C 122.4511951032434 82.54628403252258 193.9030882641312 C 0.0 **** -0.24
22667 H 123.26374019727652 81.85276467144277 193.68566485550855 H 0.0 **** 0.06
22668 H 122.80558796003996 83.31613538096113 194.58934928174003 H 0.0 **** 0.06
22669 H 121.62263600301262 82.00468237263215 194.35862094262905 H 0.0 **** 0.06
22670 H 122.11505498223752 83.01178948759909 192.97608499103188 H 0.0 **** 0.06
22671 C 179.91523151139452 78.9017956337689 78.42691985450574 C 0.0 **** -0.24
22672 H 179.0669167075359 79.26300988097566 77.84590021087976 H 0.0 **** 0.06
22673 H 180.17056614910666 79.63541851136523 79.1925028213125 H 0.0 **** 0.06
22674 H 180.77056835443136 78.75253582111844 77.76662751054553 H 0.0 **** 0.06
22675 H 179.65415757290987 77.95680169054967 78.90252936651868 H 0.0 **** 0.06
22676 C 181.11678287873747 97.31526074127208 3.881207213003748 C 0.0 **** -0.24
22677 H 180.38947243279273 97.42846763050653 4.685772495889836 H 0.0 **** 0.06
22678 H 180.6881300423022 96.70253563497837 3.087681998320164 H 0.0 **** 0.06
22679 H 182.0134468267162 96.83173767029189 4.2687336921783015 H 0.0 **** 0.06
22680 H 181.37516249475527 98.29640605774523 3.48388945237393 H 0.0 **** 0.06
22681 C 193.77601322408802 31.64662796724545 147.7246925743195 C 0.0 **** -0.24
22682 H 194.58032831038017 30.912136711877153 147.7431423315355 H 0.0 **** 0.06
22683 H 193.4621278542824 31.816153425267387 146.69480633736728 H 0.0 **** 0.06
22684 H 194.12875443811467 32.58344521515119 148.1570091912383 H 0.0 **** 0.06
22685 H 192.93173630054397 31.274814310709388 148.30599770816187 H 0.0 **** 0.06
22686 C 224.7524188143184 60.74594774141849 168.56021391566807 C 0.0 **** -0.24
22687 H 225.33369925546907 61.420641677534746 169.1881961639091 H 0.0 **** 0.06
22688 H 223.89586906278015 60.37443094743148 169.12237613454917 H 0.0 **** 0.06
22689 H 225.37690135917 59.90751036112789 168.25361015109505 H 0.0 **** 0.06
22690 H 224.40399736960092 61.28173164350673 167.67698762499273 H 0.0 **** 0.06
22691 C 94.51470086108495 214.08502756628056 135.4341376275919 C 0.0 **** -0.24
22692 H 94.0863714416912 213.21275923538468 135.92870758663489 H 0.0 **** 0.06
22693 H 95.32509041728605 214.485655436302 136.04323010598355 H 0.0 **** 0.06
22694 H 93.74468163006614 214.84529457005516 135.30793927656347 H 0.0 **** 0.06
22695 H 94.90264614539365 213.79391376979598 134.45835088030802 H 0.0 **** 0.06
22696 C 220.21971251318104 106.35425615823104 161.70650482081172 C 0.0 **** -0.24
22697 H 220.72727370966462 105.93616221174813 160.83649351924888 H 0.0 **** 0.06
22698 H 219.1564219781524 106.11771834660499 161.6553122323214 H 0.0 **** 0.06
22699 H 220.3510240557021 107.43649341068027 161.7177468034374 H 0.0 **** 0.06
22700 H 220.64402758072765 105.92708179987932 162.61512375091473 H 0.0 **** 0.06
22701 C 14.4920721507589 85.10618172332991 184.23301929075427 C 0.0 **** -0.24
22702 H 14.034926833498488 84.82760433286231 185.18256147865347 H 0.0 **** 0.06
22703 H 15.571910467256203 84.96992676704718 184.29633888692356 H 0.0 **** 0.06
22704 H 14.269248327909452 86.15093413198306 184.01576478534486 H 0.0 **** 0.06
22705 H 14.091696384113803 84.47552605141018 183.43946196158254 H 0.0 **** 0.06
22706 C 43.5880187870996 78.4725285082342 137.26044586821413 C 0.0 **** -0.24
22707 H 43.16224121686689 79.0270999929883 136.42476860444717 H 0.0 **** 0.06
22708 H 44.64046136763473 78.73368662172851 137.37032590114174 H 0.0 **** 0.06
22709 H 43.49522259331175 77.4028151657997 137.07171377096844 H 0.0 **** 0.06
22710 H 43.052362957403105 78.72761772775348 138.1757397594839 H 0.0 **** 0.06
22711 C 26.985707580217223 238.3886228838644 136.13850444074492 C 0.0 **** -0.24
22712 H 27.1207925180873 239.39213649047457 135.7348237855792 H 0.0 **** 0.06
22713 H 27.947550018956633 237.87620398160232 136.16889466791415 H 0.0 **** 0.06
22714 H 26.29610585945069 237.83213818697118 135.5030716538686 H 0.0 **** 0.06
22715 H 26.577553429611214 238.4551195270668 137.14692942713904 H 0.0 **** 0.06
22716 C 155.90930516139457 52.33369823334651 183.26940471557373 C 0.0 **** -0.24
22717 H 155.6831455677564 53.34568624212642 183.60391430917477 H 0.0 **** 0.06
22718 H 156.74285826954207 52.36147238448876 182.5677150548265 H 0.0 **** 0.06
22719 H 155.03394862845045 51.90908092991263 182.77829917567706 H 0.0 **** 0.06
22720 H 156.17754112041558 51.71843792492275 184.12907314356013 H 0.0 **** 0.06
22721 C 49.82451990891977 154.25422843914046 203.42511407704964 C 0.0 **** -0.24
22722 H 50.69489543670514 153.94462507775376 202.8464606663487 H 0.0 **** 0.06
22723 H 50.12831359913136 154.9816345989965 204.17790504502415 H 0.0 **** 0.06
22724 H 49.3858787637561 153.38499200057728 203.9153278370548 H 0.0 **** 0.06
22725 H 49.08919124714177 154.7056348409049 202.75936293378902 H 0.0 **** 0.06
22726 C 218.48118989873296 212.92891359380457 54.87776663417995 C 0.0 **** -0.24
22727 H 217.65183579971432 212.4398241668117 55.388198681357636 H 0.0 **** 0.06
22728 H 219.42434379071594 212.54341432046024 55.26503477844929 H 0.0 **** 0.06
22729 H 218.42954219974513 214.0042444830874 55.04736781207882 H 0.0 **** 0.06
22730 H 218.41839337712307 212.7263323806845 53.807601208277106 H 0.0 **** 0.06
22731 C 75.77597466861633 185.14268326519235 129.22123911343255 C 0.0 **** -0.24
22732 H 76.57014362074239 185.87423184820594 129.0774827224612 H 0.0 **** 0.06
22733 H 75.38744511049998 185.22326733912456 130.23664374331105 H 0.0 **** 0.06
22734 H 76.17370646323403 184.13935046203454 129.063447190621 H 0.0 **** 0.06
22735 H 74.97339241908867 185.33177414749193 128.50834645664904 H 0.0 **** 0.06
22736 C 89.33335032585904 93.245420463106 18.89180174338911 C 0.0 **** -0.24
22737 H 90.0438234657027 93.36899535664347 18.074196253937302 H 0.0 **** 0.06
22738 H 89.48842515031848 92.27587640640056 19.364833124222443 H 0.0 **** 0.06
22739 H 88.31777551816378 93.30149147144814 18.50229384483295 H 0.0 **** 0.06
22740 H 89.48462593781528 94.03682385218104 19.626967676583448 H 0.0 **** 0.06
22741 C 175.80317818718896 139.66024624611333 149.9066217110024 C 0.0 **** -0.24
22742 H 176.35224343289246 139.36882053286908 149.0119692835005 H 0.0 **** 0.06
22743 H 175.45804990058565 140.68902547219756 149.802754773873 H 0.0 **** 0.06
22744 H 176.45696619692927 139.58200802691604 150.77508160375174 H 0.0 **** 0.06
22745 H 174.94457737572293 139.00054862717005 150.03762660152944 H 0.0 **** 0.06
22746 C 203.07871093564148 21.488401391768292 127.58470173737354 C 0.0 **** -0.24
22747 H 202.63378702010817 20.500913748855822 127.4589144510002 H 0.0 **** 0.06
22748 H 203.93613804936507 21.588490873373956 126.91866388843184 H 0.0 **** 0.06
22749 H 203.40430623846328 21.61154413839901 128.61807153604832 H 0.0 **** 0.06
22750 H 202.33977307209602 22.252865749735662 127.34365889367893 H 0.0 **** 0.06
22751 C 238.63682278197382 213.50034829324252 234.59761509638864 C 0.0 **** -0.24
22752 H 239.539010579614 213.04615569016744 234.18781901688357 H 0.0 **** 0.06
22753 H 237.82203670495147 213.40239648253132 233.88094107656687 H 0.0 **** 0.06
22754 H 238.8211857123041 214.55622509601557 234.7958146341964 H 0.0 **** 0.06
22755 H 238.36786650149992 212.99800614924675 235.5269721114305 H 0.0 **** 0.06
22756 C 194.1061109881835 242.39008501471687 39.748711923328045 C 0.0 **** -0.24
22757 H 194.8890675917258 243.13177590985515 39.90760227772877 H 0.0 **** 0.06
22758 H 194.43170809814086 241.67600311449615 38.99191199179468 H 0.0 **** 0.06
22759 H 193.19751976579005 242.88904822202704 39.41149941097886 H 0.0 **** 0.06
22760 H 193.90783639382016 241.8651695189626 40.68319652816595 H 0.0 **** 0.06
22761 C 180.4477671812017 57.843664343145065 24.770574999640246 C 0.0 **** -0.24
22762 H 179.695925125974 57.114919608004044 25.072552148495234 H 0.0 **** 0.06
22763 H 181.3241159740839 57.32181245106551 24.3853776855847 H 0.0 **** 0.06
22764 H 180.73372419534846 58.44842847029366 25.630863033265243 H 0.0 **** 0.06
22765 H 180.0366178804968 58.48895783049039 23.993996516257354 H 0.0 **** 0.06
22766 C 20.089258101485115 226.82263202746196 245.15213891047017 C 0.0 **** -0.24
22767 H 19.807821611127707 227.02767072767858 244.11968445933593 H 0.0 **** 0.06
22768 H 20.690809536100545 227.64700245653748 245.53541797156785 H 0.0 **** 0.06
22769 H 20.667426925986803 225.89969607822263 245.19437172709246 H 0.0 **** 0.06
22770 H 19.189667312115063 226.71565445882715 245.75927463863422 H 0.0 **** 0.06
22771 C 78.72160256341951 128.1261510008688 134.90800022286018 C 0.0 **** -0.24
22772 H 78.49351321341581 127.88921278946492 135.94646836711155 H 0.0 **** 0.06
22773 H 79.74517554050539 128.49575197935582 134.8354325947544 H 0.0 **** 0.06
22774 H 78.03337238271578 128.89182103096084 134.5505464658917 H 0.0 **** 0.06
22775 H 78.61461197527956 127.22834992973284 134.2987483657367 H 0.0 **** 0.06
22776 C 199.7175413168729 231.32895757396005 73.0219766144013 C 0.0 **** -0.24
22777 H 199.1403280386831 231.91322363172526 73.73908928406854 H 0.0 **** 0.06
22778 H 199.0381919580026 230.7604767970335 72.38705644535005 H 0.0 **** 0.06
22779 H 200.37531016912328 230.64390951251488 73.55721661924639 H 0.0 **** 0.06
22780 H 200.3162890515676 231.9998958193629 72.4056353174688 H 0.0 **** 0.06
22781 C 47.443461879941964 247.58996773251545 117.44308239782671 C 0.0 **** -0.24
22782 H 47.48034369326123 246.809545227602 118.20276128338605 H 0.0 **** 0.06
22783 H 48.00290625374467 248.45982911780067 117.78919472785188 H 0.0 **** 0.06
22784 H 46.40735652510202 247.871952884304 117.26157037014048 H 0.0 **** 0.06
22785 H 47.885966528704074 247.21751575529638 116.519520963139 H 0.0 **** 0.06
22786 C 214.90397687319216 2.334422566013444 159.60539411686997 C 0.0 **** -0.24
22787 H 214.3903395715199 2.5309809178962723 158.66406945977664 H 0.0 **** 0.06
22788 H 215.11878512953464 1.2685737659213885 159.6849637175143 H 0.0 **** 0.06
22789 H 214.26987233341993 2.6409286285086466 160.43606493936622 H 0.0 **** 0.06
22790 H 215.83791595115835 2.8962502428301207 159.6334660760513 H 0.0 **** 0.06
22791 C 44.57332426347622 215.47174017117294 118.3456861632682 C 0.0 **** -0.24
22792 H 45.36542082726973 215.4517622720764 119.09473589052988 H 0.0 **** 0.06
22793 H 45.015727044724514 215.48194997223186 117.34926952666947 H 0.0 **** 0.06
22794 H 43.96629157675662 216.36729116578863 118.48435237466728 H 0.0 **** 0.06
22795 H 43.946225809143954 214.5878676860539 118.45667046395545 H 0.0 **** 0.06
22796 C 1.5356178780864127 21.07269714114277 65.04325822435351 C 0.0 **** -0.24
22797 H 2.0947414752588855 21.832345396765433 65.58836911901813 H 0.0 **** 0.06
22798 H 0.6414276794467213 20.805847977144396 65.60664173688482 H 0.0 **** 0.06
22799 H 2.1589794631230177 20.188798954745693 64.91042414146685 H 0.0 **** 0.06
22800 H 1.2473228945170405 21.46379623591561 64.06759790004435 H 0.0 **** 0.06
22801 C 121.59308460445246 171.61442868408656 41.92041533491337 C 0.0 **** -0.24
22802 H 121.44515111078718 171.3018362833417 40.8866376782716 H 0.0 **** 0.06
22803 H 121.90640508997305 172.65800768090114 41.94199578490435 H 0.0 **** 0.06
22804 H 122.36262302710932 170.99354543087668 42.379706284271464 H 0.0 **** 0.06
22805 H 120.65924723001933 171.5027892019012 42.470780619531325 H 0.0 **** 0.06
22806 C 144.09688847223566 0.9908067534083784 172.31168964893465 C 0.0 **** -0.24
22807 H 144.04112623863503 1.9649329596693406 172.79900503994378 H 0.0 **** 0.06
22808 H 143.19840699183192 0.41827262239152674 172.54123978264514 H 0.0 **** 0.06
22809 H 144.9728999709577 0.45339400389391926 172.67497460680946 H 0.0 **** 0.06
22810 H 144.17518795388423 1.1279620477285164 171.2333320169325 H 0.0 **** 0.06
22811 C 59.31734830145791 30.00457108674297 217.25503481472379 C 0.0 **** -0.24
22812 H 59.09954242682568 29.41765150066172 216.36303281672707 H 0.0 **** 0.06
22813 H 60.34977170346687 29.833622472677035 217.55846693320433 H 0.0 **** 0.06
22814 H 58.64627866498276 29.702276556104522 218.0599044580298 H 0.0 **** 0.06
22815 H 59.17193131021767 31.062406524503814 217.03843462001345 H 0.0 **** 0.06
22816 C 127.41061494253941 198.9003728612779 181.20047613455466 C 0.0 **** -0.24
22817 H 126.75013860047054 198.71948107247434 180.35255589680668 H 0.0 **** 0.06
22818 H 127.33521188099311 199.94499718305448 181.50321195719874 H 0.0 **** 0.06
22819 H 128.43875347501043 198.67964960250916 180.91338038188323 H 0.0 **** 0.06
22820 H 127.1195888364172 198.258263968601 182.03112258976932 H 0.0 **** 0.06
22821 C 2.7536879170876603 98.98042458737706 46.84936697086036 C 0.0 **** -0.24
22822 H 2.865774217970994 100.04818977551025 47.03416610746862 H 0.0 **** 0.06
22823 H 1.6959520551754963 98.71877582056044 46.85982312757207 H 0.0 **** 0.06
22824 H 3.275401017750312 98.4210662970871 47.625309818945 H 0.0 **** 0.06
22825 H 3.1801380662282384 98.73431031913447 45.87666320762483 H 0.0 **** 0.06
22826 C 137.07912740950044 55.183220284524026 241.6335048135871 C 0.0 **** -0.24
22827 H 137.37039678970538 55.34358385675995 242.67219786493013 H 0.0 **** 0.06
22828 H 136.19050754260843 55.77314465048397 241.40998403392075 H 0.0 **** 0.06
22829 H 136.8637810962352 54.126033834884225 241.47677144193665 H 0.0 **** 0.06
22830 H 137.8943393690607 55.4892451032415 240.97769474780688 H 0.0 **** 0.06
22831 C 235.16968908474996 147.5528452358771 16.001642493818764 C 0.0 **** -0.24
22832 H 236.17991748186657 147.5746220607873 15.59280765506486 H 0.0 **** 0.06
22833 H 234.46592163009117 147.27181074904243 15.21790046987428 H 0.0 **** 0.06
22834 H 234.91281678119924 148.540366929552 16.385426413292436 H 0.0 **** 0.06
22835 H 235.12192058912356 146.8249861564094 16.811669592938784 H 0.0 **** 0.06
22836 C 123.0737681252842 127.55505546314089 191.008447436342 C 0.0 **** -0.24
22837 H 123.01797464767446 126.57015899226613 191.47202008210166 H 0.0 **** 0.06
22838 H 124.10686815644237 127.76669801455387 190.7297821513211 H 0.0 **** 0.06
22839 H 122.72642204247728 128.30818542452388 191.7158048637519 H 0.0 **** 0.06
22840 H 122.4456773955767 127.57362363578287 190.1179386914098 H 0.0 **** 0.06
22841 C 133.07023240549995 121.14061818167897 136.39173181587725 C 0.0 **** -0.24
22842 H 133.9581565496095 121.57481844235048 136.8519528749627 H 0.0 **** 0.06
22843 H 133.12481099729425 121.26500525616939 135.31002686243707 H 0.0 **** 0.06
22844 H 132.18127053476667 121.6446366923958 136.7706733683203 H 0.0 **** 0.06
22845 H 133.01773423485216 120.07926854975628 136.63369558727393 H 0.0 **** 0.06
22846 C 120.24812199877184 11.711956927602003 214.2988967702736 C 0.0 **** -0.24
22847 H 119.70445847017857 12.014688931862977 213.4035220564164 H 0.0 **** 0.06
22848 H 119.54424927448466 11.333015055390575 215.04026565280543 H 0.0 **** 0.06
22849 H 120.78128043154823 12.569904206044413 214.70768781174812 H 0.0 **** 0.06
22850 H 120.96234469284877 10.929251255603845 214.04186690781353 H 0.0 **** 0.06
22851 C 133.51039123950463 72.38410648774479 195.09457917949726 C 0.0 **** -0.24
22852 H 133.84443672808695 73.41497050349736 194.9744893491858 H 0.0 **** 0.06
22853 H 132.97394212981214 72.07005599603795 194.19898372715335 H 0.0 **** 0.06
22854 H 132.84912409064526 72.31447111747474 195.95798246713028 H 0.0 **** 0.06
22855 H 134.37517555870224 71.73860579219198 195.24588845117023 H 0.0 **** 0.06
22856 C 114.56736578602428 41.56314027767847 187.31511340629208 C 0.0 **** -0.24
22857 H 115.09599626886276 41.58825559082649 188.2684447289119 H 0.0 **** 0.06
22858 H 114.05658753687155 40.60641548624844 187.2089022165904 H 0.0 **** 0.06
22859 H 115.28219812982385 41.68631742822507 186.5014459803951 H 0.0 **** 0.06
22860 H 113.83767216560196 42.37261058067709 187.28338607163357 H 0.0 **** 0.06
22861 C 67.83982166041895 12.000758319697354 28.091462157821823 C 0.0 **** -0.24
22862 H 67.29989700860861 12.018658167001476 29.03817042060365 H 0.0 **** 0.06
22863 H 68.8719179843979 11.695531014386347 28.268046566675977 H 0.0 **** 0.06
22864 H 67.8253824875539 12.995590489258731 27.645492382583328 H 0.0 **** 0.06
22865 H 67.36196604909523 11.292499764610312 27.414784686165447 H 0.0 **** 0.06
22866 C 240.9571547460538 115.59123663981674 23.3864330588913 C 0.0 **** -0.24
22867 H 241.96485911511837 115.65188631342016 23.79900681350105 H 0.0 **** 0.06
22868 H 241.00765681730093 115.62502023930676 22.297939245297556 H 0.0 **** 0.06
22869 H 240.36538248659227 116.43161491513666 23.750399436646518 H 0.0 **** 0.06
22870 H 240.49227951775552 114.65678501327781 23.70024151277758 H 0.0 **** 0.06
22871 C 22.619066851922668 242.0889415697385 129.95798543881745 C 0.0 **** -0.24
22872 H 22.2061927777157 243.0160361283718 130.35565521052754 H 0.0 **** 0.06
22873 H 22.69034368977671 241.3507008346691 130.7569183528737 H 0.0 **** 0.06
22874 H 23.611765940996833 242.280245954526 129.54921566243536 H 0.0 **** 0.06
22875 H 21.96899732185281 241.7101625307776 129.16997299963606 H 0.0 **** 0.06
22876 C 125.6069131619088 142.37825835980615 218.8010367423073 C 0.0 **** -0.24
22877 H 126.2750226498739 141.69752934465717 219.32868462658246 H 0.0 **** 0.06
22878 H 125.65991124870624 142.17980829972007 217.73027516682524 H 0.0 **** 0.06
22879 H 125.9084565366064 143.40699637055602 218.99540303777866 H 0.0 **** 0.06
22880 H 124.58524481916598 142.22597629498804 219.14899728451473 H 0.0 **** 0.06
22881 C 116.3691538591778 71.1734439311403 112.87620078297388 C 0.0 **** -0.24
22882 H 115.59578373870755 70.79772303697877 112.20662328138826 H 0.0 **** 0.06
22883 H 116.07303486390086 70.99658627588894 113.90988181367302 H 0.0 **** 0.06
22884 H 116.50168993854692 72.24315679791852 112.71316354004497 H 0.0 **** 0.06
22885 H 117.3080433049926 70.65626278171408 112.67363510235288 H 0.0 **** 0.06
22886 C 167.14837274551314 180.3129580984313 89.44044650773446 C 0.0 **** -0.24
22887 H 168.07295907523684 180.841855145108 89.67004745334751 H 0.0 **** 0.06
22888 H 166.3618418508042 181.0345991645722 89.22164092211429 H 0.0 **** 0.06
22889 H 166.8565743791792 179.70366447248693 90.29623361105516 H 0.0 **** 0.06
22890 H 167.30367908594673 179.670323547856 88.57307440935801 H 0.0 **** 0.06
22891 C 240.68684979468222 224.56808743677635 67.88510635129447 C 0.0 **** -0.24
22892 H 241.45111847724095 224.04760398404483 68.46285710394821 H 0.0 **** 0.06
22893 H 239.69947988543635 224.26892868279663 68.23728567270925 H 0.0 **** 0.06
22894 H 240.7910775788401 224.31120415031876 66.83108542532656 H 0.0 **** 0.06
22895 H 240.806664170403 225.64397713546833 68.01004007304576 H 0.0 **** 0.06
22896 C 139.2412409508327 148.40101914275596 2.8253691067096156 C 0.0 **** -0.24
22897 H 138.88512810790527 147.45838073631478 3.240755728031644 H 0.0 **** 0.06
22898 H 138.40724512718046 149.09891952329792 2.741556166297215 H 0.0 **** 0.06
22899 H 139.66760381941802 148.22541658557788 1.8378474550421515 H 0.0 **** 0.06
22900 H 140.00291006766017 148.82187662437394 3.4806688028982933 H 0.0 **** 0.06
22901 C 177.11392061106147 141.7600697983693 134.60253238696882 C 0.0 **** -0.24
22902 H 177.02375506652692 141.88028357448698 133.52341636835249 H 0.0 **** 0.06
22903 H 176.80796575601718 140.75182871049154 134.88295726318566 H 0.0 **** 0.06
22904 H 176.47473910458515 142.48651733030502 135.10384920222563 H 0.0 **** 0.06
22905 H 178.15018675904133 141.9217019910315 134.90016652200725 H 0.0 **** 0.06
22906 C 167.95432555141312 2.004620837856237 49.730617988457155 C 0.0 **** -0.24
22907 H 167.34199765139297 2.8813722345401374 49.941364518289774 H 0.0 **** 0.06
22908 H 168.22651052815877 1.5176562884412448 50.666896490031576 H 0.0 **** 0.06
22909 H 168.85706586581577 2.3105455127276286 49.203113889577295 H 0.0 **** 0.06
22910 H 167.38987810718905 1.3086649967768267 49.10986512229316 H 0.0 **** 0.06
22911 C 198.60426783868212 242.10023064609754 176.28902609151643 C 0.0 **** -0.24
22912 H 197.88430895107223 241.31168798829202 176.0686621837435 H 0.0 **** 0.06
22913 H 198.20202327337273 243.0596603935042 175.96371018527336 H 0.0 **** 0.06
22914 H 199.53714959160263 241.89882390461037 175.76275189907017 H 0.0 **** 0.06
22915 H 198.79256093669494 242.1301510003767 177.3628729447819 H 0.0 **** 0.06
22916 C 227.8412329643026 73.45140396650058 223.40401377192606 C 0.0 **** -0.24
22917 H 227.01992151169856 72.97049652633328 223.93591705930803 H 0.0 **** 0.06
22918 H 228.26847545013146 72.75183473340596 222.68635556330455 H 0.0 **** 0.06
22919 H 228.6065761061604 73.754872571346 224.11764830062154 H 0.0 **** 0.06
22920 H 227.4669166238951 74.32940333477148 222.87746182089572 H 0.0 **** 0.06
22921 C 160.62630220581582 185.1113259284287 55.528981367845034 C 0.0 **** -0.24
22922 H 161.09335383309244 185.81695690971094 56.21613802106967 H 0.0 **** 0.06
22923 H 161.32255874753494 184.3007384443771 55.313029217238835 H 0.0 **** 0.06
22924 H 160.3675295702538 185.62431832081 54.60281556433162 H 0.0 **** 0.06
22925 H 159.72416769421613 184.70508664128891 55.98385663765586 H 0.0 **** 0.06
22926 C 20.693712793600398 88.94277728041124 74.33262478504622 C 0.0 **** -0.24
22927 H 20.871013462605305 88.12567526213809 75.03163789632583 H 0.0 **** 0.06
22928 H 21.23394603178201 88.75103209284822 73.40538188087473 H 0.0 **** 0.06
22929 H 21.042608715026148 89.87800437381821 74.77058310456061 H 0.0 **** 0.06
22930 H 19.62647412418255 89.01461399524555 74.12330283992807 H 0.0 **** 0.06
22931 C 36.783077796223125 182.35289015118246 236.28640661152684 C 0.0 **** -0.24
22932 H 37.3958149696835 181.53531601118812 235.90790530171435 H 0.0 **** 0.06
22933 H 36.84204045696602 183.19866909532428 235.60093600162094 H 0.0 **** 0.06
22934 H 37.147678132684646 182.6552051062461 237.26845642592082 H 0.0 **** 0.06
22935 H 35.74714750144953 182.02401311299099 236.36873453539334 H 0.0 **** 0.06
22936 C 169.14600242834643 76.79595858882729 58.08915597300307 C 0.0 **** -0.24
22937 H 168.9166484211554 77.70512138631932 58.64404362482438 H 0.0 **** 0.06
22938 H 168.24406140932052 76.19011034791691 57.99484325219839 H 0.0 **** 0.06
22939 H 169.91131854339625 76.22957679277181 58.62143079943823 H 0.0 **** 0.06
22940 H 169.5134896441739 77.05832716546576 57.097418387410556 H 0.0 **** 0.06
22941 C 184.5954006316258 87.06926833198631 12.35633903022952 C 0.0 **** -0.24
22942 H 185.23477176541698 87.48607864100828 13.13475491655123 H 0.0 **** 0.06
22943 H 183.94650827021604 86.30819124034647 12.788891831760935 H 0.0 **** 0.06
22944 H 185.2142519316753 86.6210377794265 11.579504426212878 H 0.0 **** 0.06
22945 H 183.98590158316497 87.86351319990229 11.923162868822061 H 0.0 **** 0.06
22946 C 25.11336504489094 169.45336101372 94.7046234830213 C 0.0 **** -0.24
22947 H 24.085998289796663 169.80191023753054 94.809449800088 H 0.0 **** 0.06
22948 H 25.15791970615561 168.67833300199706 93.94002095611191 H 0.0 **** 0.06
22949 H 25.457545900667142 169.04572185204563 95.65592492634289 H 0.0 **** 0.06
22950 H 25.751348662618994 170.28780389341318 94.41496239741471 H 0.0 **** 0.06
22951 C 193.04545212116884 199.17863235756136 156.0294640941533 C 0.0 **** -0.24
22952 H 194.06905318358338 199.33000249983013 155.68574106456532 H 0.0 **** 0.06
22953 H 193.05322581026388 198.91155972434277 157.08661231254771 H 0.0 **** 0.06
22954 H 192.58431341447226 198.3766426875091 155.45403710471743 H 0.0 **** 0.06
22955 H 192.47712703072904 200.09837308618572 155.89107640539893 H 0.0 **** 0.06
22956 C 248.60913844514934 141.74322714646217 241.5323283639356 C 0.0 **** -0.24
22957 H 249.50452472038035 141.24115634744754 241.1661127197582 H 0.0 **** 0.06
22958 H 247.7301416988309 141.3119659690079 241.05367286962547 H 0.0 **** 0.06
22959 H 248.66750881462116 142.80594070253935 241.2963975055356 H 0.0 **** 0.06
22960 H 248.53609437303822 141.6133703119386 242.61144806138793 H 0.0 **** 0.06
22961 C 66.88409087232634 16.830964311019983 5.690724875374087 C 0.0 **** -0.24
22962 H 66.95411070960373 15.75186044028922 5.826141357935995 H 0.0 **** 0.06
22963 H 65.84259456446952 17.111076815587836 5.530840539770651 H 0.0 **** 0.06
22964 H 67.47733967863243 17.127608374304913 4.825606545197644 H 0.0 **** 0.06
22965 H 67.26453710961928 17.334348941839465 6.580266979982952 H 0.0 **** 0.06
22966 C 92.42751399748704 242.85621031030485 182.51336046744663 C 0.0 **** -0.24
22967 H 91.35703085525807 243.00869331706966 182.37322713480862 H 0.0 **** 0.06
22968 H 92.58966324671621 242.03216607552514 183.20920549557175 H 0.0 **** 0.06
22969 H 92.87375417781195 243.7655283665071 182.9155332407403 H 0.0 **** 0.06
22970 H 92.88803062159104 242.61880150013366 181.55485013581088 H 0.0 **** 0.06
22971 C 110.6009137960585 24.67396707481626 210.14753346058325 C 0.0 **** -0.24
22972 H 110.91563651359158 24.99140441442941 209.15406393269438 H 0.0 **** 0.06
22973 H 111.14607604277043 23.77391134302306 210.4315165093381 H 0.0 **** 0.06
22974 H 109.53074655233385 24.46479997695471 210.13918036604701 H 0.0 **** 0.06
22975 H 110.80929562810812 25.467282131155315 210.8655939073687 H 0.0 **** 0.06
22976 C 192.2616850129508 85.32917818485345 143.09520999116793 C 0.0 **** -0.24
22977 H 192.21022180908335 84.26325963319468 142.87352609981735 H 0.0 **** 0.06
22978 H 193.09260225965562 85.51922795388774 143.77553285270247 H 0.0 **** 0.06
22979 H 191.3295275513114 85.64792977288448 143.56137568943706 H 0.0 **** 0.06
22980 H 192.41474360876583 85.88547216882054 142.17084824854533 H 0.0 **** 0.06
22981 C 173.86828705391133 241.51075795251342 29.61906752540193 C 0.0 **** -0.24
22982 H 174.1736276022311 242.55686285317537 29.663308561474537 H 0.0 **** 0.06
22983 H 173.34866051713365 241.24493787786173 30.53968064729216 H 0.0 **** 0.06
22984 H 174.75107171671 240.88084284666658 29.504705039840047 H 0.0 **** 0.06
22985 H 173.20277154471862 241.36183750028985 28.768554516404976 H 0.0 **** 0.06
22986 C 105.29424975062543 131.5406752020663 205.10563594333786 C 0.0 **** -0.24
22987 H 105.70182525133345 131.15921132672696 206.0415654744246 H 0.0 **** 0.06
22988 H 105.74300771635626 131.00527528892118 204.26903520903005 H 0.0 **** 0.06
22989 H 105.51777551584388 132.60505908107947 205.01905198669414 H 0.0 **** 0.06
22990 H 104.21363861471261 131.39460247887516 205.0934740242892 H 0.0 **** 0.06
22991 C 117.99377796907783 119.2260478727413 40.559564973788454 C 0.0 **** -0.24
22992 H 118.93139725144283 119.46921549304278 40.06098684897836 H 0.0 **** 0.06
22993 H 117.18258562677104 119.23056646807859 39.83102730000341 H 0.0 **** 0.06
22994 H 117.791920313611 119.96549238772124 41.334146060174575 H 0.0 **** 0.06
22995 H 118.07004984535087 118.23679267231768 41.01298237216669 H 0.0 **** 0.06
22996 C 57.41391047066452 99.00546727726154 208.32471087574527 C 0.0 **** -0.24
22997 H 57.58045945632671 98.36109026578265 207.46210710737094 H 0.0 **** 0.06
22998 H 58.37369762359745 99.30122628914532 208.74776736431264 H 0.0 **** 0.06
22999 H 56.83609632537713 98.46546637653589 209.0751257040544 H 0.0 **** 0.06
23000 H 56.8638923770981 99.89375070625834 208.01303761499935 H 0.0 **** 0.06
23001 C 140.34699333309607 25.845786521596253 74.39759803406255 C 0.0 **** -0.24
23002 H 141.42707473638032 25.749093394783756 74.51508925247174 H 0.0 **** 0.06
23003 H 140.04445898744814 25.401851962247548 73.44856923731882 H 0.0 **** 0.06
23004 H 140.0741628961216 26.90076018844961 74.41031332998656 H 0.0 **** 0.06
23005 H 139.84505581217715 25.329932147212133 75.21638223151854 H 0.0 **** 0.06
23006 C 0.9779580315414904 8.910379171936924 65.46494354903271 C 0.0 **** -0.24
23007 H 1.8174919831860592 8.233520910698005 65.30663623260241 H 0.0 **** 0.06
23008 H 1.1678224290637473 9.851675261608634 64.95024486003581 H 0.0 **** 0.06
23009 H 0.8586483010754051 9.096348606656647 66.53256526659479 H 0.0 **** 0.06
23010 H 0.06799451443119153 8.457376883203708 65.07182793005009 H 0.0 **** 0.06
23011 C 81.73142331543715 176.33487018562784 137.02475053919645 C 0.0 **** -0.24
23012 H 82.58637227406527 175.8979179431202 136.50845063782515 H 0.0 **** 0.06
23013 H 82.03554789821811 176.6594872956714 138.02036118039365 H 0.0 **** 0.06
23014 H 80.9394141815406 175.5913140024321 137.11032680473588 H 0.0 **** 0.06
23015 H 81.3659771789606 177.19215228365914 136.45919497423236 H 0.0 **** 0.06
23016 C 169.37830367890535 139.5513228366413 74.41719800170736 C 0.0 **** -0.24
23017 H 169.075049844064 138.78562808854906 73.702809985073 H 0.0 **** 0.06
23018 H 168.88425287367875 139.3725526537462 75.37197891281971 H 0.0 **** 0.06
23019 H 169.09424715129583 140.53301068985007 74.03896076027485 H 0.0 **** 0.06
23020 H 170.45904500014598 139.5129491972431 74.55297070709074 H 0.0 **** 0.06
23021 C 179.0399625984781 39.37989160930408 231.51660364625639 C 0.0 **** -0.24
23022 H 178.66403365123318 40.128745894213296 232.21414523008607 H 0.0 **** 0.06
23023 H 178.5738563995628 39.524537341177535 230.54173381033948 H 0.0 **** 0.06
23024 H 178.80268100488166 38.38396111979036 231.8901655163792 H 0.0 **** 0.06
23025 H 180.12173785592051 39.483630508435354 231.4208637782021 H 0.0 **** 0.06
23026 C 60.93892987620114 132.37977324928653 96.30595386013141 C 0.0 **** -0.24
23027 H 61.39271299846007 133.3448071161741 96.08139411701458 H 0.0 **** 0.06
23028 H 61.18671935221957 131.66916699496167 95.51660684590752 H 0.0 **** 0.06
23029 H 59.85636008747184 132.493377181452 96.36712062454686 H 0.0 **** 0.06
23030 H 61.319927066652895 132.01174170455818 97.25869385305674 H 0.0 **** 0.06
23031 C 13.939564769597112 104.83398830629824 224.30721657711752 C 0.0 **** -0.24
23032 H 13.307560099421266 105.40096914303862 224.99071741573235 H 0.0 **** 0.06
23033 H 14.950038037701233 104.77476194111043 224.71027559343057 H 0.0 **** 0.06
23034 H 13.963838193586028 105.33230638040496 223.33771852445966 H 0.0 **** 0.06
23035 H 13.53543636190713 103.8288738417516 224.18767281942723 H 0.0 **** 0.06
23036 C 90.76364128304095 168.6436734909659 201.53965642903313 C 0.0 **** -0.24
23037 H 90.18171712047166 169.47231677894908 201.13837458055022 H 0.0 **** 0.06
23038 H 90.85872174780246 168.7554906183744 202.61920874056227 H 0.0 **** 0.06
23039 H 91.75559384525886 168.64236341028075 201.08539990607568 H 0.0 **** 0.06
23040 H 90.26028422781144 167.70348920258058 201.3130229066307 H 0.0 **** 0.06
23041 C 99.7324125369411 112.54363009880467 243.44201350839595 C 0.0 **** -0.24
23042 H 99.58720487044903 112.47353553371931 244.51977834798726 H 0.0 **** 0.06
23043 H 98.76208068095616 112.54403097737406 242.9448611137796 H 0.0 **** 0.06
23044 H 100.31603912389096 111.6897546317598 243.0988673927207 H 0.0 **** 0.06
23045 H 100.26351272424785 113.46526609281267 243.20532331256476 H 0.0 **** 0.06
23046 C 19.808920375736804 91.59456481922143 192.67468176407425 C 0.0 **** -0.24
23047 H 20.359401781274798 92.36465325942567 193.21458414432158 H 0.0 **** 0.06
23048 H 18.847647415979964 91.99407280338278 192.35148176939097 H 0.0 **** 0.06
23049 H 19.645242015844246 90.739656019975 193.33086231071775 H 0.0 **** 0.06
23050 H 20.383980335442004 91.27931610584477 191.80410904497148 H 0.0 **** 0.06
23051 C 94.53734175012931 227.57837965457492 247.97664616900624 C 0.0 **** -0.24
23052 H 95.53213662503407 227.7501213709891 247.56572341779264 H 0.0 **** 0.06
23053 H 93.78609423714772 227.84271955390938 247.23115292324732 H 0.0 **** 0.06
23054 H 94.40077990523898 228.19513528932706 248.86446873597836 H 0.0 **** 0.06
23055 H 94.43160647162085 226.52754989653866 248.2436881624024 H 0.0 **** 0.06
23056 C 103.44387301328203 239.6174505604464 174.16089010916818 C 0.0 **** -0.24
23057 H 104.12797549981562 239.9711399808921 173.3901287052868 H 0.0 **** 0.06
23058 H 103.21324826403125 238.56565023290636 173.98777200465017 H 0.0 **** 0.06
23059 H 102.5241061861349 240.2018181505477 174.12619028487208 H 0.0 **** 0.06
23060 H 103.90927759987423 239.7308137297194 175.13973990703659 H 0.0 **** 0.06
23061 C 163.98773220616485 208.96217964802614 65.42664329891667 C 0.0 **** -0.24
23062 H 163.96178330951375 209.52905288267638 64.49645248430872 H 0.0 **** 0.06
23063 H 164.3475706305997 207.95238683930373 65.22638753208193 H 0.0 **** 0.06
23064 H 162.98476134799856 208.9133753717965 65.8510336529848 H 0.0 **** 0.06
23065 H 164.65798930011462 209.45315190841396 66.13246993511129 H 0.0 **** 0.06
23066 C 9.110160779826998 216.48416834841368 246.40257414669605 C 0.0 **** -0.24
23067 H 8.138966497719395 216.00082394388426 246.50325885810082 H 0.0 **** 0.06
23068 H 9.249669587733905 217.19361461184107 247.2178138991403 H 0.0 **** 0.06
23069 H 9.156297415794484 217.01191910025432 245.44986898469887 H 0.0 **** 0.06
23070 H 9.895978651404022 215.72998867291813 246.4374001866504 H 0.0 **** 0.06
23071 C 170.1293678601679 126.46358751281491 144.57143146297236 C 0.0 **** -0.24
23072 H 169.36185963015805 126.35549654249812 145.33814916394462 H 0.0 **** 0.06
23073 H 170.62883251939016 125.50626296350117 144.42005663746588 H 0.0 **** 0.06
23074 H 170.85850757021797 127.20898209661937 144.8892046022267 H 0.0 **** 0.06
23075 H 169.66608761817534 126.78330290167855 143.63724943007986 H 0.0 **** 0.06
23076 C 200.16114701813933 57.41547757277735 2.2541650332932335 C 0.0 **** -0.24
23077 H 199.49979410324278 56.64157876191504 2.643538272956448 H 0.0 **** 0.06
23078 H 199.61910308078663 58.360041385289776 2.195708587570607 H 0.0 **** 0.06
23079 H 200.50708527578118 57.13249129937236 1.2609731881086361 H 0.0 **** 0.06
23080 H 201.01788990519393 57.5287900048165 2.919179692470422 H 0.0 **** 0.06
23081 C 223.53379322332037 32.2732582005884 218.8112514169307 C 0.0 **** -0.24
23082 H 223.3809222553574 32.50962649233995 217.75799405445252 H 0.0 **** 0.06
23083 H 224.08025963385342 31.33423793025517 218.89722792501317 H 0.0 **** 0.06
23084 H 222.566241922412 32.177764857501046 219.30559854769345 H 0.0 **** 0.06
23085 H 224.1049288546544 33.07205304794681 219.28339487246961 H 0.0 **** 0.06
23086 C 31.453807061742026 229.77548436777852 233.46503153448788 C 0.0 **** -0.24
23087 H 30.48505134558522 229.75018320307424 232.96543891189486 H 0.0 **** 0.06
23088 H 31.70127737186627 228.77801115702772 233.82815301278183 H 0.0 **** 0.06
23089 H 31.41028246160667 230.46802813212912 234.3049186109426 H 0.0 **** 0.06
23090 H 32.217340784743186 230.10530762445546 232.76116263089443 H 0.0 **** 0.06
23091 C 30.07560039859547 232.63585629818525 77.55723872530126 C 0.0 **** -0.24
23092 H 30.15690824511492 232.16447472180994 78.53677535787764 H 0.0 **** 0.06
23093 H 30.367213184799454 233.68372215848015 77.6342367735977 H 0.0 **** 0.06
23094 H 29.04564641570815 232.56898095254644 77.20598659972987 H 0.0 **** 0.06
23095 H 30.733605305004062 232.1263528863322 76.85338619512186 H 0.0 **** 0.06
23096 C 232.02716676321626 56.81886656484144 153.63225554972195 C 0.0 **** -0.24
23097 H 231.795538917834 57.82708066134575 153.29073185642545 H 0.0 **** 0.06
23098 H 232.80971697031052 56.39299994816275 153.0041167360783 H 0.0 **** 0.06
23099 H 231.13212833769535 56.19943675442752 153.56823599419744 H 0.0 **** 0.06
23100 H 232.37057848517122 56.85600882882227 154.66664494540265 H 0.0 **** 0.06
23101 C 85.52122841981839 123.99259021450439 29.981499629078513 C 0.0 **** -0.24
23102 H 86.3856111967263 124.04195706928044 29.31952312283687 H 0.0 **** 0.06
23103 H 85.17203674871851 122.9615932764857 30.045827451143026 H 0.0 **** 0.06
23104 H 84.72471627088427 124.6220012079634 29.585800554196283 H 0.0 **** 0.06
23105 H 85.80311903174376 124.34402266398303 30.973819376519003 H 0.0 **** 0.06
23106 C 185.67578886721378 76.87704037914196 103.89483836984945 C 0.0 **** -0.24
23107 H 184.84821880626683 76.49257063729198 104.4924974685348 H 0.0 **** 0.06
23108 H 185.78632106669852 76.2697279852022 102.99613215306013 H 0.0 **** 0.06
23109 H 186.59490290878557 76.83287349402858 104.47848143429303 H 0.0 **** 0.06
23110 H 185.47257114295923 77.91006664346014 103.61491722003441 H 0.0 **** 0.06
23111 C 26.2917358655217 127.80083531074371 226.608448992151 C 0.0 **** -0.24
23112 H 27.058358369488587 128.35202065644458 226.06399493658628 H 0.0 **** 0.06
23113 H 25.33471249428014 127.90807099065592 226.09680423713678 H 0.0 **** 0.06
23114 H 26.209523454321285 128.195993954795 227.62101125462985 H 0.0 **** 0.06
23115 H 26.5636593944284 126.74636963812031 226.65112573575902 H 0.0 **** 0.06
23116 C 226.3199818682954 163.20505265424728 46.47121360616504 C 0.0 **** -0.24
23117 H 226.28338788156725 163.67674089189487 47.45336260656866 H 0.0 **** 0.06
23118 H 225.69396081360742 163.7630196635701 45.77618266651412 H 0.0 **** 0.06
23119 H 225.9560543643691 162.17987868826484 46.54613816505922 H 0.0 **** 0.06
23120 H 227.34885824532373 163.19903316160773 46.10960366708915 H 0.0 **** 0.06
23121 C 165.84940752238973 148.24597232219804 85.92764461528981 C 0.0 **** -0.24
23122 H 165.50060193137853 148.71672498505004 85.00839483366866 H 0.0 **** 0.06
23123 H 165.068879638001 148.3099583495397 86.68634257048035 H 0.0 **** 0.06
23124 H 166.74410307316742 148.75819279102285 86.28122010861654 H 0.0 **** 0.06
23125 H 166.08224671208927 147.19894151335407 85.73329449912302 H 0.0 **** 0.06
23126 C 81.57645986971423 87.14271273016666 3.8789076672806146 C 0.0 **** -0.24
23127 H 82.62998664044306 86.8674271770586 3.833138969773259 H 0.0 **** 0.06
23128 H 81.48172504458825 88.1492244838594 4.287353476537163 H 0.0 **** 0.06
23129 H 81.04371586348833 86.43918756824755 4.51847372060719 H 0.0 **** 0.06
23130 H 81.1514437257562 87.11690789258975 2.8755069711814514 H 0.0 **** 0.06
23131 C 62.64116566386059 15.025390855362062 32.715151917675 C 0.0 **** -0.24
23132 H 63.56433054034119 14.902576870496233 33.281998378507794 H 0.0 **** 0.06
23133 H 61.93935996020818 15.629660311031643 33.290724464479624 H 0.0 **** 0.06
23134 H 62.20283561596477 14.046940486340958 32.51937344375622 H 0.0 **** 0.06
23135 H 62.858999309844904 15.52253329084202 31.769622184827952 H 0.0 **** 0.06
23136 C 39.23281062031268 155.26737041664092 41.196289273853836 C 0.0 **** -0.24
23137 H 38.62134380522136 156.08254734090428 41.58131456016069 H 0.0 **** 0.06
23138 H 39.448247407666 154.5642032093378 42.00037224936359 H 0.0 **** 0.06
23139 H 40.16754303997462 155.6680665836967 40.8040260269389 H 0.0 **** 0.06
23140 H 38.694781205106295 154.75393784864337 40.399306264510756 H 0.0 **** 0.06
23141 C 198.43251331390115 211.93683571143706 149.82522698379196 C 0.0 **** -0.24
23142 H 199.3786966295022 212.46233798176905 149.95984154530464 H 0.0 **** 0.06
23143 H 198.0019608163248 212.20566195904297 148.86070971444624 H 0.0 **** 0.06
23144 H 197.74523130224856 212.2187466557921 150.62311308366657 H 0.0 **** 0.06
23145 H 198.6070670873038 210.86189290205937 149.85818901704155 H 0.0 **** 0.06
23146 C 248.43279826882264 192.56857745734237 125.04299356071812 C 0.0 **** -0.24
23147 H 249.15433715180663 191.814484334425 125.35765492338615 H 0.0 **** 0.06
23148 H 248.0102603853378 192.28615243725994 124.07844837285415 H 0.0 **** 0.06
23149 H 248.9323420475357 193.5335870672896 124.9535450191303 H 0.0 **** 0.06
23150 H 247.6356172991516 192.63981608158713 125.78206670756822 H 0.0 **** 0.06
23151 C 21.978611095864892 230.96218937835198 114.66469240030924 C 0.0 **** -0.24
23152 H 22.63581545881783 231.81482779395566 114.491456334285 H 0.0 **** 0.06
23153 H 21.674174281166813 230.53845168295993 113.70724518579868 H 0.0 **** 0.06
23154 H 21.097489373706765 231.28858473388254 115.2156979685563 H 0.0 **** 0.06
23155 H 22.51110686304372 230.20735704335954 115.24357492398272 H 0.0 **** 0.06
23156 C 86.58163221818674 96.63440108409984 50.904214072444745 C 0.0 **** -0.24
23157 H 85.51362978661442 96.45646372141641 51.02653603246533 H 0.0 **** 0.06
23158 H 86.73476162029996 97.4578036123574 50.205490774683966 H 0.0 **** 0.06
23159 H 87.05785645150584 95.7341230438509 50.51599828462143 H 0.0 **** 0.06
23160 H 87.02004645115744 96.88997999119502 51.8682327130978 H 0.0 **** 0.06
23161 C 2.126743009827152 51.64104375321776 190.4883011718257 C 0.0 **** -0.24
23162 H 1.8348542960230247 52.24757230540021 191.34601013727223 H 0.0 **** 0.06
23163 H 2.2388746033138034 50.60171672652453 190.79942722458338 H 0.0 **** 0.06
23164 H 3.073581432474441 52.00546930164174 190.09084478163433 H 0.0 **** 0.06
23165 H 1.3581075684744803 51.7098998124159 189.71751521868757 H 0.0 **** 0.06
23166 C 238.59334407997304 142.52465406129113 103.96038933522524 C 0.0 **** -0.24
23167 H 237.80804090592963 141.86850489472783 104.33586871712157 H 0.0 **** 0.06
23168 H 238.14784027296977 143.44482829008265 103.58281906061558 H 0.0 **** 0.06
23169 H 239.13178139288874 142.02391424049515 103.15568910414032 H 0.0 **** 0.06
23170 H 239.28512009718239 142.76114846509023 104.76932500350824 H 0.0 **** 0.06
23171 C 70.23908668123622 192.33623045958228 76.80009221496158 C 0.0 **** -0.24
23172 H 69.51802343683894 192.91683920460298 77.37577429320226 H 0.0 **** 0.06
23173 H 69.92622612323416 191.2924175312772 76.7724985229126 H 0.0 **** 0.06
23174 H 71.22096250603349 192.40885768986533 77.26861940376926 H 0.0 **** 0.06
23175 H 70.29139891938368 192.72635599256796 75.78432892868767 H 0.0 **** 0.06
23176 C 9.58452656813185 227.97845457102915 184.35312333343825 C 0.0 **** -0.24
23177 H 8.655175389183142 227.47588929673165 184.08821564359778 H 0.0 **** 0.06
23178 H 9.950399112783515 228.54140429080167 183.4942912976406 H 0.0 **** 0.06
23179 H 10.328679895647014 227.23634902347132 184.6454121771518 H 0.0 **** 0.06
23180 H 9.405103728501928 228.65959447360834 185.1848825807404 H 0.0 **** 0.06
23181 C 78.261227716494 173.5947782366713 178.88748910867434 C 0.0 **** -0.24
23182 H 78.37483764850231 173.79946270139175 177.82330791435663 H 0.0 **** 0.06
23183 H 78.82323121473922 172.69783508276007 179.14784581789382 H 0.0 **** 0.06
23184 H 77.20625662011179 173.44222046824237 179.11648624346583 H 0.0 **** 0.06
23185 H 78.63921271492961 174.43989491434215 179.46247668007743 H 0.0 **** 0.06
23186 C 79.45805871109434 51.372773379160535 87.30338743818729 C 0.0 **** -0.24
23187 H 80.05556958258222 51.49027065948941 88.20618735783066 H 0.0 **** 0.06
23188 H 80.07806122123839 51.5708646486471 86.42838039999123 H 0.0 **** 0.06
23189 H 78.62513826366828 52.07557696193078 87.32509508483992 H 0.0 **** 0.06
23190 H 79.07250260779071 50.35377944765756 87.25304419849525 H 0.0 **** 0.06
23191 C 230.31532868013744 196.10513365340148 117.99640507368076 C 0.0 **** -0.24
23192 H 230.82873658169632 195.808922892191 117.08118537933416 H 0.0 **** 0.06
23193 H 229.61848508581653 195.32051640039703 118.29190015753585 H 0.0 **** 0.06
23194 H 229.7686025233386 197.03161236004948 117.82178181815033 H 0.0 **** 0.06
23195 H 231.04745088337256 196.25929078348548 118.7896945777729 H 0.0 **** 0.06
23196 C 151.45607840958561 6.136676403995864 152.06734767199455 C 0.0 **** -0.24
23197 H 152.19194645184498 5.968044147055366 151.28177403111397 H 0.0 **** 0.06
23198 H 150.5491504873504 5.5752399328952436 151.8416589321022 H 0.0 **** 0.06
23199 H 151.22112530448229 7.199884405007282 152.123733492639 H 0.0 **** 0.06
23200 H 151.8620913946647 5.8035371310255925 153.02222423212302 H 0.0 **** 0.06
23201 C 22.91104741561776 195.54471173243454 174.93278784055502 C 0.0 **** -0.24
23202 H 22.98269504795121 195.18477738398275 173.9065517818694 H 0.0 **** 0.06
23203 H 22.062385810042173 195.06987974054513 175.4258523744548 H 0.0 **** 0.06
23204 H 22.771486626393326 196.6254135368776 174.92996681016103 H 0.0 **** 0.06
23205 H 23.827622178084326 195.2987762683327 175.46878039573488 H 0.0 **** 0.06
23206 C 56.028333477126125 82.18042689669966 218.96145152050275 C 0.0 **** -0.24
23207 H 56.89677969797265 81.59425501379687 219.26221763519163 H 0.0 **** 0.06
23208 H 55.49055294268288 82.51567377312003 219.84831971701226 H 0.0 **** 0.06
23209 H 55.370073880638984 81.56541355746225 218.34770445003122 H 0.0 **** 0.06
23210 H 56.355943586198066 83.04678070988928 218.38665481063862 H 0.0 **** 0.06
23211 C 239.53044098556992 118.25720871270084 39.80333514209774 C 0.0 **** -0.24
23212 H 239.93297705126116 117.58197027959972 40.55914884558361 H 0.0 **** 0.06
23213 H 239.00717208067954 119.07848800333986 40.29367436674538 H 0.0 **** 0.06
23214 H 238.83538840684605 117.71347610555767 39.16418388803962 H 0.0 **** 0.06
23215 H 240.346030746474 118.65432561469174 39.199436912226176 H 0.0 **** 0.06
23216 C 132.21277951014244 214.58890204110327 147.69630850000374 C 0.0 **** -0.24
23217 H 131.20514007641188 214.99558987940534 147.61675139670257 H 0.0 **** 0.06
23218 H 132.16042099990042 213.54442740660434 148.00451768025434 H 0.0 **** 0.06
23219 H 132.7763927209658 215.15893848045133 148.43605182859378 H 0.0 **** 0.06
23220 H 132.7104588079229 214.65737460989672 146.72880894128969 H 0.0 **** 0.06
23221 C 45.217042427226204 127.30052185594104 151.85862395616317 C 0.0 **** -0.24
23222 H 45.852359027472005 126.50783256314625 151.4620762508264 H 0.0 **** 0.06
23223 H 45.675255930049985 127.71815850550809 152.75502151413238 H 0.0 **** 0.06
23224 H 44.23890573896519 126.88979572966005 152.10790939965378 H 0.0 **** 0.06
23225 H 45.102943871417224 128.08359448820255 151.10947288004365 H 0.0 **** 0.06
23226 C 111.28161903554619 88.48691665622019 45.76964539042909 C 0.0 **** -0.24
23227 H 111.51898791056334 88.13408045261627 44.76626550482101 H 0.0 **** 0.06
23228 H 112.09096535299045 89.12181336831134 46.13158500214324 H 0.0 **** 0.06
23229 H 111.16405089471587 87.63301976708777 46.43601570295944 H 0.0 **** 0.06
23230 H 110.35469636068345 89.05860343692666 45.743700548227864 H 0.0 **** 0.06
23231 C 84.01549214612973 248.9939519997805 58.738878627575986 C 0.0 **** -0.24
23232 H 84.33894633941205 248.44993371130812 57.85195188477749 H 0.0 **** 0.06
23233 H 84.86899553921714 249.51024915572725 59.179420093943094 H 0.0 **** 0.06
23234 H 83.60023714049723 248.29337168342244 59.46404831778298 H 0.0 **** 0.06
23235 H 83.25378956539222 249.7222534486641 58.460094213800375 H 0.0 **** 0.06
23236 C 175.02875554621522 185.31058667623103 30.35701051584266 C 0.0 **** -0.24
23237 H 174.42887237955046 184.4382665533724 30.09587766205331 H 0.0 **** 0.06
23238 H 175.33492844532935 185.24085543202216 31.40094216176371 H 0.0 **** 0.06
23239 H 174.43731923619313 186.21423148496905 30.209882275677302 H 0.0 **** 0.06
23240 H 175.91243386815216 185.34668189129377 29.720631447403974 H 0.0 **** 0.06
23241 C 173.08001125944898 120.04409816041945 198.39819354700387 C 0.0 **** -0.24
23242 H 173.2922698074113 119.7591014959524 199.4282846943917 H 0.0 **** 0.06
23243 H 172.60534055743508 121.02640290675771 198.38367797469942 H 0.0 **** 0.06
23244 H 172.41164489516567 119.31026957920392 197.94829735799485 H 0.0 **** 0.06
23245 H 174.01171174844055 120.08286843865002 197.832811689913 H 0.0 **** 0.06
23246 C 165.12021262542564 189.11096985645068 27.091908273282613 C 0.0 **** -0.24
23247 H 164.1098376344493 189.40484580364793 26.80525013735553 H 0.0 **** 0.06
23248 H 165.14526809119494 188.89312526325924 28.159518466047487 H 0.0 **** 0.06
23249 H 165.8107742550022 189.92435863955424 26.86997159598782 H 0.0 **** 0.06
23250 H 165.41292739547563 188.2225182683123 26.531950763611448 H 0.0 **** 0.06
23251 C 89.87895057211009 197.9273525176069 215.3465126402076 C 0.0 **** -0.24
23252 H 89.0350061952256 198.172863800465 215.9916511321577 H 0.0 **** 0.06
23253 H 90.26395175442565 196.94261176593199 215.6107763484157 H 0.0 **** 0.06
23254 H 90.66346251253267 198.67253224307888 215.47606863436482 H 0.0 **** 0.06
23255 H 89.55070130529668 197.92192400982015 214.30631240195567 H 0.0 **** 0.06
23256 C 31.69715642437282 6.946861388975037 166.2796578703903 C 0.0 **** -0.24
23257 H 32.660630508379285 7.4571144319774305 166.2650599965232 H 0.0 **** 0.06
23258 H 30.91113277427084 7.662920010405486 166.52226342296652 H 0.0 **** 0.06
23259 H 31.715548012394976 6.15844702863825 167.03187998636074 H 0.0 **** 0.06
23260 H 31.50223868894213 6.510858052179202 165.30017549194474 H 0.0 **** 0.06
23261 C 132.36197872291424 176.5818191571321 179.0851147675684 C 0.0 **** -0.24
23262 H 131.65774529563973 177.32606858143032 178.71149242285156 H 0.0 **** 0.06
23263 H 132.65248373327702 176.8358612425992 180.10433163518084 H 0.0 **** 0.06
23264 H 133.24556093842457 176.5669714763104 178.4479589214793 H 0.0 **** 0.06
23265 H 131.8903937617592 175.59917178014894 179.07550613812793 H 0.0 **** 0.06
23266 C 243.67095410072653 242.10006355447487 239.4162282391937 C 0.0 **** -0.24
23267 H 244.07828527041713 243.01320075532695 238.98124163257245 H 0.0 **** 0.06
23268 H 244.0591840105962 241.97464840286682 240.427709410514 H 0.0 **** 0.06
23269 H 243.96239200665067 241.24554428009571 238.80483529360185 H 0.0 **** 0.06
23270 H 242.58354125425626 242.1688417942151 239.45017564747636 H 0.0 **** 0.06
23271 C 128.83700379504688 171.72347118717292 30.451158962118498 C 0.0 **** -0.24
23272 H 128.3629336511771 172.6571050769523 30.148897776344143 H 0.0 **** 0.06
23273 H 129.78525894557995 171.9404310391849 30.944323411847662 H 0.0 **** 0.06
23274 H 129.01859951718248 171.10658751592564 29.570471100874073 H 0.0 **** 0.06
23275 H 128.18228161011527 171.18938382456523 31.139289118557087 H 0.0 **** 0.06
23276 C 18.208545391085636 184.98630389808258 18.870799986681533 C 0.0 **** -0.24
23277 H 17.59776860997796 184.12362174370043 19.137863271289618 H 0.0 **** 0.06
23278 H 18.30033077911736 185.6470924588003 19.732936572141313 H 0.0 **** 0.06
23279 H 17.736414803715334 185.52369203342002 18.048002152923075 H 0.0 **** 0.06
23280 H 19.198222788792222 184.64889010443454 18.563918668627792 H 0.0 **** 0.06
23281 C 108.68373341608503 161.98340844756578 104.98583362069829 C 0.0 **** -0.24
23282 H 108.27283374933015 161.88404519996772 105.99027673666785 H 0.0 **** 0.06
23283 H 109.69696602694128 161.58061541755845 104.96755710088442 H 0.0 **** 0.06
23284 H 108.70550401738467 163.0361112168986 104.70477404512698 H 0.0 **** 0.06
23285 H 108.06054119502798 161.43201319060327 104.28139675307497 H 0.0 **** 0.06
23286 C 28.176662486477284 224.77952585855252 205.49828967113052 C 0.0 **** -0.24
23287 H 28.015377940940795 224.95555656988535 206.5617787647168 H 0.0 **** 0.06
23288 H 27.236736283847875 224.48320541813678 205.0324984083496 H 0.0 **** 0.06
23289 H 28.91302442840984 223.98668980528367 205.3689967995827 H 0.0 **** 0.06
23290 H 28.540683567175137 225.69483934594862 205.03061195014325 H 0.0 **** 0.06
23291 C 247.1448199714633 136.82585149570403 7.279170600227729 C 0.0 **** -0.24
23292 H 246.88285918359185 136.27127083906555 6.378463986699359 H 0.0 **** 0.06
23293 H 246.49209240391315 136.51792771232846 8.096770286682414 H 0.0 **** 0.06
23294 H 247.0218032260749 137.89279935512698 7.097578477753672 H 0.0 **** 0.06
23295 H 248.18166696766525 136.61935089092685 7.543691623006765 H 0.0 **** 0.06
23296 C 118.81997943959598 169.22896710538154 71.02476245508396 C 0.0 **** -0.24
23297 H 119.49685794588228 170.04036772241443 70.75692837006957 H 0.0 **** 0.06
23298 H 118.99982263350688 168.9333292421763 72.05813762591805 H 0.0 **** 0.06
23299 H 118.99560603220681 168.37766460850332 70.36713647692577 H 0.0 **** 0.06
23300 H 117.7896451010941 169.565817028074 70.91637040320819 H 0.0 **** 0.06
23301 C 89.79782729870337 11.945641997195551 175.95780212571773 C 0.0 **** -0.24
23302 H 89.24374897449147 11.02532518239245 176.1439492322835 H 0.0 **** 0.06
23303 H 90.47672447247012 11.796371141455154 175.11815374156623 H 0.0 **** 0.06
23304 H 90.37000609398106 12.210714885271898 176.84661557903976 H 0.0 **** 0.06
23305 H 89.09870845780134 12.747692349166286 175.7231435681238 H 0.0 **** 0.06
23306 C 43.37372514444402 42.41494552240226 70.20608140805788 C 0.0 **** -0.24
23307 H 42.31490145215025 42.41936865803595 69.94632498674886 H 0.0 **** 0.06
23308 H 43.96339395315192 42.17721148540035 69.32034397567779 H 0.0 **** 0.06
23309 H 43.55515385515619 41.66621390156422 70.97673836505444 H 0.0 **** 0.06
23310 H 43.659555002001355 43.39811738375886 70.58055965451408 H 0.0 **** 0.06
23311 C 100.95743309532844 179.41602828562952 171.01425773704494 C 0.0 **** -0.24
23312 H 100.08881716105799 179.0261814973567 171.54387873214927 H 0.0 **** 0.06
23313 H 100.63522609137121 179.8840914501886 170.08371859414785 H 0.0 **** 0.06
23314 H 101.64379872021976 178.59962261224598 170.79200660911778 H 0.0 **** 0.06
23315 H 101.4619089147306 180.15520163822873 171.6376039365684 H 0.0 **** 0.06
23316 C 42.60135318161345 91.72595080005706 62.12739796302111 C 0.0 **** -0.24
23317 H 42.74166249309978 90.64538557219865 62.09413150025307 H 0.0 **** 0.06
23318 H 42.524741748295355 92.05069447627847 63.16606673704504 H 0.0 **** 0.06
23319 H 41.68657791860966 91.99018885582942 61.59595930571493 H 0.0 **** 0.06
23320 H 43.45063247969405 92.21783193709851 61.654729817635285 H 0.0 **** 0.06
23321 C 202.79060947768312 221.70324689801043 216.7081466217 C 0.0 **** -0.24
23322 H 203.0904560577698 220.87002278239822 217.34397613816253 H 0.0 **** 0.06
23323 H 202.39637257591994 221.31838155439598 215.7676911466067 H 0.0 **** 0.06
23324 H 203.65547531843757 222.33653507269804 216.50880083919822 H 0.0 **** 0.06
23325 H 202.0221148139197 222.28628693847074 217.21384298710845 H 0.0 **** 0.06
23326 C 152.74543456570464 167.57483292607228 114.55876770387508 C 0.0 **** -0.24
23327 H 152.4766098388387 168.63043869426477 114.53088778124132 H 0.0 **** 0.06
23328 H 152.653252886934 167.15079684389883 113.55939715304075 H 0.0 **** 0.06
23329 H 152.07803415515937 167.04871353583337 115.24036629219793 H 0.0 **** 0.06
23330 H 153.77381518880833 167.47149287415667 114.90515866509438 H 0.0 **** 0.06
23331 C 186.67891501064895 200.80663129007965 236.41641286044202 C 0.0 **** -0.24
23332 H 186.6334451809263 201.84600144197944 236.74230510562077 H 0.0 **** 0.06
23333 H 187.4458908580672 200.6991247198485 235.6498021704332 H 0.0 **** 0.06
23334 H 185.71259632548572 200.51198632931164 236.00881489500995 H 0.0 **** 0.06
23335 H 186.92469807077535 200.17103687056368 237.26795734199746 H 0.0 **** 0.06
23336 C 238.1706647999914 62.05010985576942 81.60451244525868 C 0.0 **** -0.24
23337 H 238.5923376503494 61.35542589994887 80.87910789380257 H 0.0 **** 0.06
23338 H 237.83488088738056 61.499763388805235 82.48292265179825 H 0.0 **** 0.06
23339 H 237.32466749919854 62.5723738467328 81.15621960252358 H 0.0 **** 0.06
23340 H 238.9307640353195 62.77529839214077 81.89712878045813 H 0.0 **** 0.06
23341 C 70.13705566626214 82.8883492560434 126.66315743592776 C 0.0 **** -0.24
23342 H 70.71261719583845 82.15448079323605 126.09944512527403 H 0.0 **** 0.06
23343 H 70.29575874538037 82.73076105785447 127.73050549196267 H 0.0 **** 0.06
23344 H 69.07797256496207 82.77371469892685 126.43242280205985 H 0.0 **** 0.06
23345 H 70.46209902371524 83.89145033389903 126.3901636708645 H 0.0 **** 0.06
23346 C 182.81327587076746 144.53131739419268 73.76060190709785 C 0.0 **** -0.24
23347 H 183.7661289867556 145.0394858225073 73.61128224879542 H 0.0 **** 0.06
23348 H 182.17529003117278 144.69301602138452 72.89167544732263 H 0.0 **** 0.06
23349 H 182.32559474769437 144.92883337286165 74.64985818264591 H 0.0 **** 0.06
23350 H 182.98859616850802 143.462334803657 73.88919273814062 H 0.0 **** 0.06
23351 C 231.75094279201997 143.12674622232058 125.428025781857 C 0.0 **** -0.24
23352 H 232.52893895673856 142.36332295582187 125.46071313747194 H 0.0 **** 0.06
23353 H 231.96436909799965 143.82842203433495 124.62285013806815 H 0.0 **** 0.06
23354 H 231.72677943275215 143.66049527266665 126.37890099307276 H 0.0 **** 0.06
23355 H 230.78462707812696 142.65324034528902 125.25293237905538 H 0.0 **** 0.06
23356 C 188.70066257917492 169.35284496209326 178.70627526092574 C 0.0 **** -0.24
23357 H 189.33568435547556 169.72356585063844 179.510062497952 H 0.0 **** 0.06
23358 H 187.68207719654174 169.71397907784942 178.8515837155614 H 0.0 **** 0.06
23359 H 188.70466553867914 168.2622534718133 178.71426024740856 H 0.0 **** 0.06
23360 H 189.0802758671209 169.71058370222212 177.74915284707112 H 0.0 **** 0.06
23361 C 66.35731375461202 77.44911668696724 55.20995981558977 C 0.0 **** -0.24
23362 H 66.55847498421065 77.38338449648228 56.279709327437786 H 0.0 **** 0.06
23363 H 67.04684093089764 78.16044821186242 54.7543423083373 H 0.0 **** 0.06
23364 H 65.33207544813425 77.7842230006851 55.052963821843036 H 0.0 **** 0.06
23365 H 66.49327586390692 76.46861803455874 54.754814502553444 H 0.0 **** 0.06
23366 C 122.58366226556959 210.91370599463613 48.571502556835114 C 0.0 **** -0.24
23367 H 122.39861376290938 210.15393574718604 47.81117117752446 H 0.0 **** 0.06
23368 H 122.22305011201715 210.5566811171991 49.536241735003046 H 0.0 **** 0.06
23369 H 122.05988536982281 211.83110550352558 48.30360244477464 H 0.0 **** 0.06
23370 H 123.6538561234922 211.1116656148559 48.63316021044041 H 0.0 **** 0.06
23371 C 0.7814213302804518 194.99215576414767 128.92252020258383 C 0.0 **** -0.24
23372 H 0.05937059944224643 195.61456926840427 128.39398000454153 H 0.0 **** 0.06
23373 H 1.7149442558091579 195.54209248675613 129.04289511877676 H 0.0 **** 0.06
23374 H 0.9656544734524743 194.08362652071713 128.34954260473597 H 0.0 **** 0.06
23375 H 0.3851708380144032 194.72942046899482 129.90293912986093 H 0.0 **** 0.06
23376 C 198.39809441723634 159.84120924545505 43.95440904664687 C 0.0 **** -0.24
23377 H 198.64799627286828 160.47750651422882 43.105300443827645 H 0.0 **** 0.06
23378 H 199.2672484348413 159.244689980113 44.22993149544837 H 0.0 **** 0.06
23379 H 197.5753317464726 159.1801928273337 43.6817619253616 H 0.0 **** 0.06
23380 H 198.09933334649952 160.46254119009765 44.79893909970414 H 0.0 **** 0.06
23381 C 108.30427929308678 20.151298079752422 12.770186916803453 C 0.0 **** -0.24
23382 H 107.33741502059024 20.651500656360398 12.722980754599263 H 0.0 **** 0.06
23383 H 108.7615660932936 20.151448123483334 11.779799948414308 H 0.0 **** 0.06
23384 H 108.16464707039944 19.12349175474013 13.105310133788834 H 0.0 **** 0.06
23385 H 108.95214973439741 20.677747414315235 13.47016730677504 H 0.0 **** 0.06
23386 C 45.719412528622286 226.1337291306648 65.7300581403033 C 0.0 **** -0.24
23387 H 46.05506748305967 226.1542334454782 66.76705760852764 H 0.0 **** 0.06
23388 H 45.17744762061281 227.05232079707986 65.50609396017771 H 0.0 **** 0.06
23389 H 45.063566877081314 225.2769006847135 65.57700566293298 H 0.0 **** 0.06
23390 H 46.584679941514565 226.05229550463162 65.07086359021136 H 0.0 **** 0.06
23391 C 61.62395336906698 110.69028030798384 224.16889643529214 C 0.0 **** -0.24
23392 H 61.389769673622794 110.94530755287335 223.13645726134672 H 0.0 **** 0.06
23393 H 61.367027965444265 109.64676186718572 224.35269027569103 H 0.0 **** 0.06
23394 H 61.050121665029565 111.32916445748685 224.84054350966775 H 0.0 **** 0.06
23395 H 62.689506118503914 110.83958387371308 224.3474863760825 H 0.0 **** 0.06
23396 C 110.59808653430883 75.09103592447678 208.63955956508903 C 0.0 **** -0.24
23397 H 109.88497495293626 75.56678680882001 207.966866819029 H 0.0 **** 0.06
23398 H 111.47567000687036 75.72883594567372 208.74740647175895 H 0.0 **** 0.06
23399 H 110.89714546420856 74.12715920475148 208.2296596026715 H 0.0 **** 0.06
23400 H 110.13416985888725 74.94352921051117 209.6146968140883 H 0.0 **** 0.06
23401 C 194.80357063436074 127.54442037505069 239.44183799305142 C 0.0 **** -0.24
23402 H 194.15774474827452 127.31783557078865 240.2908337712077 H 0.0 **** 0.06
23403 H 194.2528388654192 128.14655291961205 238.71828599138718 H 0.0 **** 0.06
23404 H 195.1260423430977 126.615429285873 238.97235091569738 H 0.0 **** 0.06
23405 H 195.67604062571962 128.09871773738618 239.788461884553 H 0.0 **** 0.06
23406 C 141.72393153771722 34.29797631265731 53.91230483896601 C 0.0 **** -0.24
23407 H 142.34454577376306 35.17883667031755 53.747718782487624 H 0.0 **** 0.06
23408 H 141.37909609427695 33.91222141941326 52.95302477208091 H 0.0 **** 0.06
23409 H 140.86558696784823 34.5690814838418 54.526456406652954 H 0.0 **** 0.06
23410 H 142.30841047625296 33.53251512077753 54.4233528887292 H 0.0 **** 0.06
23411 C 49.87794037477359 193.57881292490623 22.456355771980526 C 0.0 **** -0.24
23412 H 50.72127907906024 194.07072771802422 21.972263601217676 H 0.0 **** 0.06
23413 H 49.854017215323836 192.5289961242014 22.16401703539026 H 0.0 **** 0.06
23414 H 48.950173839341915 194.0624517325317 22.151332289946325 H 0.0 **** 0.06
23415 H 49.98712250147118 193.65292352188465 23.53834489012644 H 0.0 **** 0.06
23416 C 210.0665966523643 106.58609158250394 87.78729961950287 C 0.0 **** -0.24
23417 H 209.65589066362497 107.36567168223152 87.14613347700217 H 0.0 **** 0.06
23418 H 211.1150344622316 106.79957344053068 87.99469108826429 H 0.0 **** 0.06
23419 H 209.98419452929426 105.6222663140766 87.28515192295265 H 0.0 **** 0.06
23420 H 209.50989586788853 106.55552563617934 88.72438528105297 H 0.0 **** 0.06
23421 C 181.7754945940739 141.90444089570795 66.2831956983733 C 0.0 **** -0.24
23422 H 182.34788375091438 142.72100834431544 66.72377353273427 H 0.0 **** 0.06
23423 H 181.12770676334486 142.29660227848308 65.499049699697 H 0.0 **** 0.06
23424 H 181.16749040138552 141.43091124368487 67.05505265051701 H 0.0 **** 0.06
23425 H 182.45918926025928 141.1701979251606 65.85773544467642 H 0.0 **** 0.06
23426 C 38.98873850964763 26.82148569110828 97.33463474821667 C 0.0 **** -0.24
23427 H 38.54439053606504 25.98739563016059 97.87939637986725 H 0.0 **** 0.06
23428 H 40.010971777896 26.566975339963022 97.05386402318061 H 0.0 **** 0.06
23429 H 38.99575702938701 27.7074907533802 97.96945152376483 H 0.0 **** 0.06
23430 H 38.4035144755438 27.020769216467528 96.43753861926783 H 0.0 **** 0.06
23431 C 200.63943322328646 160.48088130511812 0.5089276127758353 C 0.0 **** -0.24
23432 H 201.49302622777282 159.81705902463733 0.37202790165910926 H 0.0 **** 0.06
23433 H 199.79232417429301 160.1070955397262 -0.06775865117690216 H 0.0 **** 0.06
23434 H 200.89931544221332 161.48198787609437 0.1661778113224699 H 0.0 **** 0.06
23435 H 200.37288017024792 160.516020928294 1.5649310404641028 H 0.0 **** 0.06
23436 C 165.52254116415017 176.23494655072577 141.03436997833884 C 0.0 **** -0.24
23437 H 165.61100665405738 176.77902534663446 140.0948016329181 H 0.0 **** 0.06
23438 H 165.8639461497574 176.86859491030953 141.85375692874516 H 0.0 **** 0.06
23439 H 166.136538311671 175.33444095067762 140.99173487628212 H 0.0 **** 0.06
23440 H 164.48178845899253 175.95768539880376 141.19773036520493 H 0.0 **** 0.06
23441 C 152.3748423122716 206.58982257873234 16.1076232181953 C 0.0 **** -0.24
23442 H 152.7800905420509 206.80419100040734 15.11857285344908 H 0.0 **** 0.06
23443 H 151.35350367393826 206.96586281835 16.1702785979665 H 0.0 **** 0.06
23444 H 152.98885612488849 207.07666697249294 16.86400019040498 H 0.0 **** 0.06
23445 H 152.3766713079458 205.51252517591013 16.274334142437766 H 0.0 **** 0.06
23446 C 19.035483274957173 234.59198056914377 178.43486577933226 C 0.0 **** -0.24
23447 H 18.306171729984484 234.29315245311696 179.18835566291068 H 0.0 **** 0.06
23448 H 18.523818412806676 235.08383140175502 177.60793749298307 H 0.0 **** 0.06
23449 H 19.55834531417723 233.7097399550828 178.06662218001426 H 0.0 **** 0.06
23450 H 19.75369944770027 235.28125932439616 178.87986230087614 H 0.0 **** 0.06
23451 C 87.17067767568992 95.33910142354085 201.22337869357642 C 0.0 **** -0.24
23452 H 86.45059429294088 95.54653962573443 202.01496626535078 H 0.0 **** 0.06
23453 H 87.76534860451673 96.23161179483463 201.02966424134894 H 0.0 **** 0.06
23454 H 86.6395952909559 95.05185975603504 200.3157563622147 H 0.0 **** 0.06
23455 H 87.82651269176074 94.52520370598396 201.53274499362257 H 0.0 **** 0.06
23456 C 66.81469497442998 191.8546995966467 153.90772080997996 C 0.0 **** -0.24
23457 H 67.50466659409545 191.0689225513338 154.21578926209358 H 0.0 **** 0.06
23458 H 67.27389152899187 192.45263328404732 153.1205617422821 H 0.0 **** 0.06
23459 H 66.58689442626883 192.4927036502072 154.7621348286822 H 0.0 **** 0.06
23460 H 65.89526696688932 191.40536828684728 153.5349567243885 H 0.0 **** 0.06
23461 C 198.2466902702485 225.08931855932207 109.87492605097293 C 0.0 **** -0.24
23462 H 197.22688596014044 224.70258925351166 109.84978241326564 H 0.0 **** 0.06
23463 H 198.22135024301096 226.16802550650652 110.03131268742277 H 0.0 **** 0.06
23464 H 198.74029449116557 224.8702158839844 108.9287049093104 H 0.0 **** 0.06
23465 H 198.7941674517091 224.61651063517385 110.68920545905797 H 0.0 **** 0.06
23466 C 56.260779403971895 144.42896624950504 143.04176386398316 C 0.0 **** -0.24
23467 H 57.26766261455279 144.8217395308711 142.89953896885518 H 0.0 **** 0.06
23468 H 55.749830678974064 145.01030916527085 143.80928154055724 H 0.0 **** 0.06
23469 H 56.318903439219156 143.38604610855967 143.35367690892662 H 0.0 **** 0.06
23470 H 55.708683591622815 144.49815082796036 142.1046121821936 H 0.0 **** 0.06
23471 C 220.3189332474608 135.62305273639268 130.2827305408582 C 0.0 **** -0.24
23472 H 219.56686897941887 135.95298965796854 129.56597567726493 H 0.0 **** 0.06
23473 H 221.1540818149523 135.1680717091908 129.74976927743936 H 0.0 **** 0.06
23474 H 219.87889945561363 134.8913710855954 130.9603342549008 H 0.0 **** 0.06
23475 H 220.67588273985837 136.47977849281597 130.85484295382759 H 0.0 **** 0.06
23476 C 211.93647400182113 143.2954188403774 118.95824206981348 C 0.0 **** -0.24
23477 H 211.5096624087013 142.48723374554058 118.36447925234953 H 0.0 **** 0.06
23478 H 211.63408304387582 144.25433939295644 118.53649373415053 H 0.0 **** 0.06
23479 H 213.02334293714713 143.2190854020292 118.94725643438127 H 0.0 **** 0.06
23480 H 211.57741222217686 143.221233862899 119.98481491101973 H 0.0 **** 0.06
23481 C 23.56696912092518 216.48898054037633 198.131279459877 C 0.0 **** -0.24
23482 H 23.577846310478677 216.0373572831528 199.12376608404918 H 0.0 **** 0.06
23483 H 22.691876223569807 216.13858749610253 197.58255574091908 H 0.0 **** 0.06
23484 H 24.470781935203007 216.2055899310988 197.592851453047 H 0.0 **** 0.06
23485 H 23.5247433646569 217.57385374454913 198.22728823004184 H 0.0 **** 0.06
23486 C 127.5497268901253 75.37506221073588 157.30192020006635 C 0.0 **** -0.24
23487 H 127.81818295754135 74.35649267256838 157.0227553762964 H 0.0 **** 0.06
23488 H 127.82714452383249 75.55162439640492 158.34187011954927 H 0.0 **** 0.06
23489 H 126.4748761752135 75.51332290390926 157.18432134011414 H 0.0 **** 0.06
23490 H 128.07856116965286 76.07900700852517 156.66012694225023 H 0.0 **** 0.06
23491 C 83.90909303459404 100.06453889968148 240.45499887931732 C 0.0 **** -0.24
23492 H 84.81027081647431 99.47371656285307 240.61914863150832 H 0.0 **** 0.06
23493 H 84.08144690360092 101.08886074855766 240.7854038775625 H 0.0 **** 0.06
23494 H 83.08400172625065 99.63288947254136 241.02198713190813 H 0.0 **** 0.06
23495 H 83.66070984374815 100.06128345167832 239.39360321171523 H 0.0 **** 0.06
23496 C 25.73108690817739 163.36030768238518 164.25491135439526 C 0.0 **** -0.24
23497 H 26.265722865772915 162.95887634507295 163.39426401699748 H 0.0 **** 0.06
23498 H 25.97241803414161 164.41714418365228 164.3714595091215 H 0.0 **** 0.06
23499 H 26.029631561422292 162.81855379050907 165.1523027840975 H 0.0 **** 0.06
23500 H 24.658218812247668 163.2468683908368 164.10111558165343 H 0.0 **** 0.06
23501 C 213.15969693597904 145.6545353755161 24.15397595487724 C 0.0 **** -0.24
23502 H 213.80553879001548 146.47897703052448 24.455662586113462 H 0.0 **** 0.06
23503 H 213.27368052383144 145.47606662265477 23.084481578805466 H 0.0 **** 0.06
23504 H 212.1222777052708 145.90682706007647 24.372497830722182 H 0.0 **** 0.06
23505 H 213.43757296013078 144.75540489133368 24.703674830547598 H 0.0 **** 0.06
23506 C 90.39286442826244 195.4858703483045 34.04800307782264 C 0.0 **** -0.24
23507 H 89.53669342741094 194.84986315058 34.27171634458165 H 0.0 **** 0.06
23508 H 90.3645809214735 196.3705396462732 34.68495979202163 H 0.0 **** 0.06
23509 H 90.35618148992987 195.78980677381713 33.00119001220955 H 0.0 **** 0.06
23510 H 91.31424162071869 194.93367639243124 34.23326363510084 H 0.0 **** 0.06
23511 C 186.2825747395355 4.6559811659466845 114.1732421975685 C 0.0 **** -0.24
23512 H 185.22901571983562 4.639239491739033 114.4525013583276 H 0.0 **** 0.06
23513 H 186.78395180457056 3.783051113390627 114.5919147863602 H 0.0 **** 0.06
23514 H 186.7470719308953 5.5624212423130075 114.56101701998375 H 0.0 **** 0.06
23515 H 186.36989493839044 4.638579696931345 113.08685279157535 H 0.0 **** 0.06
23516 C 22.453473003965357 121.10116361582138 172.5386758413834 C 0.0 **** -0.24
23517 H 22.285620031204147 121.47420896807412 173.54953988974896 H 0.0 **** 0.06
23518 H 23.238850498612777 120.3453866392972 172.5562520719953 H 0.0 **** 0.06
23519 H 22.75604413708274 121.92591774329867 171.89278969367788 H 0.0 **** 0.06
23520 H 21.5325025804091 120.66031765217903 172.15704397029594 H 0.0 **** 0.06
23521 C 143.0848304154298 112.94861968283578 34.45677961123657 C 0.0 **** -0.24
23522 H 142.49670026388458 113.85736571152523 34.33258162461732 H 0.0 **** 0.06
23523 H 144.00814095122212 113.03214497648946 33.88325476272708 H 0.0 **** 0.06
23524 H 142.51090888798234 112.09378501948692 34.1002907067013 H 0.0 **** 0.06
23525 H 143.3230871838098 112.81207584316343 35.51197536013167 H 0.0 **** 0.06
23526 C 23.90463776015811 228.4659420945825 4.635780723612157 C 0.0 **** -0.24
23527 H 23.265382823013624 228.1093192753813 3.8275852843661085 H 0.0 **** 0.06
23528 H 24.950137004004162 228.33263587127783 4.356801590860329 H 0.0 **** 0.06
23529 H 23.69476495668259 227.89814738842267 5.542402557660921 H 0.0 **** 0.06
23530 H 23.70781416009423 229.52270239767407 4.814966929348799 H 0.0 **** 0.06
23531 C 27.303097969498623 67.26812115211263 107.8543063232053 C 0.0 **** -0.24
23532 H 26.527646391162165 66.51179423347511 107.97515751050068 H 0.0 **** 0.06
23533 H 28.064449910636114 67.13256041177587 108.62196514649267 H 0.0 **** 0.06
23534 H 26.860795240970134 68.25946718474776 107.950420341073 H 0.0 **** 0.06
23535 H 27.75703191881766 67.1667521144748 106.86917595398208 H 0.0 **** 0.06
23536 C 134.62293577974486 31.174561955785478 205.86821604752282 C 0.0 **** -0.24
23537 H 135.47260534888204 31.84472675052625 206.0056436945672 H 0.0 **** 0.06
23538 H 134.46283644634326 30.601517838899753 206.78126873409272 H 0.0 **** 0.06
23539 H 134.82836122164696 30.494819203683008 205.04206549531955 H 0.0 **** 0.06
23540 H 133.73132208533252 31.76021227478374 205.64451246710206 H 0.0 **** 0.06
23541 C 40.740419987120134 18.52864450387962 226.18032047212955 C 0.0 **** -0.24
23542 H 41.773365492304976 18.31827702429807 225.90299453342897 H 0.0 **** 0.06
23543 H 40.70118652029865 18.84174385546106 227.22467248223074 H 0.0 **** 0.06
23544 H 40.13822482631369 17.629541634731197 226.04798909916877 H 0.0 **** 0.06
23545 H 40.34871672588443 19.32482252104387 225.54701431224726 H 0.0 **** 0.06
23546 C 35.390553930800294 149.26992315596976 54.99902514696063 C 0.0 **** -0.24
23547 H 35.897727902439456 148.3626525088702 54.672663242736746 H 0.0 **** 0.06
23548 H 36.13144752426119 150.0175712297398 55.284835616468456 H 0.0 **** 0.06
23549 H 34.75517926419137 149.0420221405948 55.855526016948204 H 0.0 **** 0.06
23550 H 34.77842898274811 149.65710338510107 54.18432453352477 H 0.0 **** 0.06
23551 C 98.91806072933886 43.24796385851623 211.45698637857208 C 0.0 **** -0.24
23552 H 99.10404103985397 42.99346886929979 210.41357601192874 H 0.0 **** 0.06
23553 H 99.75405435148079 43.830458432987484 211.84321337949123 H 0.0 **** 0.06
23554 H 98.81050146017 42.33293168914307 212.03983859502938 H 0.0 **** 0.06
23555 H 98.001242980064 43.83398015815409 211.5295307872502 H 0.0 **** 0.06
23556 C 196.07507840640687 181.17049553238994 47.18213173677785 C 0.0 **** -0.24
23557 H 196.30161274386842 181.4896258617477 48.19986382532005 H 0.0 **** 0.06
23558 H 195.60666178311521 181.99305348411673 46.640100493407616 H 0.0 **** 0.06
23559 H 195.39573326869512 180.31910822866826 47.211702053444384 H 0.0 **** 0.06
23560 H 196.99870790526379 180.88230124007063 46.67853151446421 H 0.0 **** 0.06
23561 C 57.98067421846102 226.32314782257015 135.61523249549992 C 0.0 **** -0.24
23562 H 56.89263917707149 226.38371508268224 135.58672062600115 H 0.0 **** 0.06
23563 H 58.28559916448961 225.27607625423826 135.62247747141785 H 0.0 **** 0.06
23564 H 58.347613827 226.81468228049715 136.5165269945862 H 0.0 **** 0.06
23565 H 58.39584669521301 226.81633156309982 134.7371578021058 H 0.0 **** 0.06
23566 C 136.64548319461173 84.41983019988135 152.5411640132108 C 0.0 **** -0.24
23567 H 136.45621333001102 85.48350919657528 152.39835128683958 H 0.0 **** 0.06
23568 H 137.72154409025163 84.24248128993119 152.5629102522839 H 0.0 **** 0.06
23569 H 136.20106924428558 83.85769153804742 151.72037541322396 H 0.0 **** 0.06
23570 H 136.20483649807446 84.09568258115584 153.48402104389373 H 0.0 **** 0.06
23571 C 181.0095676672987 38.412100458472466 123.47828933663882 C 0.0 **** -0.24
23572 H 181.65848588826213 37.83634425428876 124.13880316114091 H 0.0 **** 0.06
23573 H 181.61557766682964 38.91267747793479 122.7222363555938 H 0.0 **** 0.06
23574 H 180.46757934025422 39.15662426270676 124.0602975106807 H 0.0 **** 0.06
23575 H 180.3002053298626 37.743518765559614 122.9926071941602 H 0.0 **** 0.06
23576 C 246.1651343033681 3.1869001461089113 8.70993361452895 C 0.0 **** -0.24
23577 H 245.15988121530302 3.580716907355182 8.861986772378245 H 0.0 **** 0.06
23578 H 246.54761176231025 3.5289079610853946 7.747279348942513 H 0.0 **** 0.06
23579 H 246.13418400451957 2.097730458198427 8.72301154788913 H 0.0 **** 0.06
23580 H 246.81869423034678 3.541915873214734 9.507030740777552 H 0.0 **** 0.06
23581 C 38.4130279037506 206.25966151941864 200.23011885372483 C 0.0 **** -0.24
23582 H 37.44117908587866 206.65006844404553 200.53274383819638 H 0.0 **** 0.06
23583 H 39.107222870118534 207.08722229350235 200.08159919198818 H 0.0 **** 0.06
23584 H 38.30648934994511 205.7015333109585 199.29992102059913 H 0.0 **** 0.06
23585 H 38.79633964052374 205.5995611862214 201.00825009719628 H 0.0 **** 0.06
23586 C 115.60105185669687 245.19251004214607 33.71615108099195 C 0.0 **** -0.24
23587 H 115.03247054314244 244.96957520307967 32.81302765561432 H 0.0 **** 0.06
23588 H 114.91350584044619 245.36342907936927 34.54485050351235 H 0.0 **** 0.06
23589 H 116.20437161691919 246.08515217209901 33.554237976902556 H 0.0 **** 0.06
23590 H 116.25313073935217 244.35200758347952 33.95181462913615 H 0.0 **** 0.06
23591 C 61.203264288238614 116.48097074389122 28.655027100314527 C 0.0 **** -0.24
23592 H 61.78451244023981 117.00458663177969 29.4140314197208 H 0.0 **** 0.06
23593 H 60.244893325388745 116.98384418574435 28.521333498812837 H 0.0 **** 0.06
23594 H 61.03316165987141 115.45254123195306 28.972988418631658 H 0.0 **** 0.06
23595 H 61.75072423162962 116.48507677672703 27.71225919452054 H 0.0 **** 0.06
23596 C 63.798619378795394 228.15225640845387 158.9321392337993 C 0.0 **** -0.24
23597 H 64.39390050126235 227.93964008442254 159.82108932775782 H 0.0 **** 0.06
23598 H 64.44078634237212 228.5717535666334 158.15762693859563 H 0.0 **** 0.06
23599 H 63.015827771895886 228.86852260187322 159.1828913324456 H 0.0 **** 0.06
23600 H 63.34450609154766 227.2303803424079 158.5704263661218 H 0.0 **** 0.06
23601 C 188.00245047586208 93.313002164587 59.892050451144655 C 0.0 **** -0.24
23602 H 188.06427525830404 94.38767654094684 59.72137752439755 H 0.0 **** 0.06
23603 H 186.95574555985553 93.0088023691981 59.91985117284065 H 0.0 **** 0.06
23604 H 188.47658999711632 93.06871521581283 60.8432587256973 H 0.0 **** 0.06
23605 H 188.51330272712278 92.78632460564111 59.08565023997349 H 0.0 **** 0.06
23606 C 112.07449126047524 55.84604777713784 148.49643028843246 C 0.0 **** -0.24
23607 H 111.22373534973238 56.266410874244826 149.03285159422165 H 0.0 **** 0.06
23608 H 112.99327632275472 56.31595987171664 148.8494872479343 H 0.0 **** 0.06
23609 H 111.95832041114267 56.03246098500642 147.42836286189885 H 0.0 **** 0.06
23610 H 112.12193885390377 54.772274998333074 148.6751515950844 H 0.0 **** 0.06
23611 C 245.95747674385058 36.818041033073115 10.499818110488462 C 0.0 **** -0.24
23612 H 246.58619481891543 36.81292744352251 11.389580433530156 H 0.0 **** 0.06
23613 H 245.365047324206 35.903296777269105 10.46788216573843 H 0.0 **** 0.06
23614 H 246.58645634226627 36.87387643928369 9.610591674518162 H 0.0 **** 0.06
23615 H 245.29254727880198 37.681324739416795 10.530060793775618 H 0.0 **** 0.06
23616 C 213.29318035420246 3.837783090996922 237.56135954009187 C 0.0 **** -0.24
23617 H 212.77603976756347 4.375696871112837 238.35504772475065 H 0.0 **** 0.06
23618 H 214.30500810700516 3.5958959649088484 237.8855520433329 H 0.0 **** 0.06
23619 H 213.33660120275115 4.460785461847507 236.66817409355264 H 0.0 **** 0.06
23620 H 212.753179745477 2.917720851400702 237.33607218055414 H 0.0 **** 0.06
23621 C 181.41812525633935 69.1197949034887 83.06101606785478 C 0.0 **** -0.24
23622 H 180.81173944167867 69.96830282358576 83.38062072841942 H 0.0 **** 0.06
23623 H 181.45009141602202 69.0877102357787 81.97179877496666 H 0.0 **** 0.06
23624 H 180.9798169590479 68.19726874841149 83.43990904139494 H 0.0 **** 0.06
23625 H 182.42970301890017 69.23043944497812 83.45151034944794 H 0.0 **** 0.06
23626 C 234.84491263463835 48.88530088746026 103.95406299113239 C 0.0 **** -0.24
23627 H 234.83836411111741 49.40072568774704 102.99302190311522 H 0.0 **** 0.06
23628 H 234.48879251555138 47.86415040503002 103.82108286554677 H 0.0 **** 0.06
23629 H 234.1920017726645 49.40992818226826 104.65185248672918 H 0.0 **** 0.06
23630 H 235.8603722623937 48.86859354407247 104.34988135629243 H 0.0 **** 0.06
23631 C 115.15358683858744 202.922898847249 2.465337034571533 C 0.0 **** -0.24
23632 H 114.11097848941807 203.0913860672242 2.1955585014096215 H 0.0 **** 0.06
23633 H 115.77245894490662 203.70960002862097 2.031784092582072 H 0.0 **** 0.06
23634 H 115.47580631698025 201.95434266139503 2.0844498059583003 H 0.0 **** 0.06
23635 H 115.25421810602231 202.93897461727676 3.550495311153796 H 0.0 **** 0.06
23636 C 162.3594657668417 33.6534057350101 114.74896552162122 C 0.0 **** -0.24
23637 H 162.859214525002 34.39886757810028 115.36723276522102 H 0.0 **** 0.06
23638 H 162.3118778501212 32.70786497389332 115.28915218233143 H 0.0 **** 0.06
23639 H 162.91930317249603 33.515762301450295 113.82366344239799 H 0.0 **** 0.06
23640 H 161.34976633174708 33.99127757398365 114.51664626805447 H 0.0 **** 0.06
23641 C 1.290251668109022 118.99665889947164 44.7706773425613 C 0.0 **** -0.24
23642 H 0.7540216482390178 119.10687497978577 45.713215591203124 H 0.0 **** 0.06
23643 H 1.8998272049061597 119.8820121822238 44.593105420144724 H 0.0 **** 0.06
23644 H 0.5741972750658135 118.87910184387397 43.9574073919525 H 0.0 **** 0.06
23645 H 1.9315435170491355 118.11671834384816 44.81845756321863 H 0.0 **** 0.06
23646 C 215.0714235058519 236.7905505016325 200.21789666434154 C 0.0 **** -0.24
23647 H 215.22183416671876 237.86173007681666 200.08454930887154 H 0.0 **** 0.06
23648 H 214.600734027351 236.37666123341486 199.32544853175466 H 0.0 **** 0.06
23649 H 214.42939650342316 236.6184137459141 201.08079921866366 H 0.0 **** 0.06
23650 H 216.03489122833741 236.30589882108592 200.3786924173536 H 0.0 **** 0.06
23651 C 196.7701548234593 98.31651806069738 94.2983018244733 C 0.0 **** -0.24
23652 H 196.7240436956219 99.1394929558167 95.01117744483588 H 0.0 **** 0.06
23653 H 196.1664657983098 97.48535439056411 94.66536054177732 H 0.0 **** 0.06
23654 H 197.80410729510083 97.99201176938385 94.18408047979358 H 0.0 **** 0.06
23655 H 196.38483576268823 98.6486249318466 93.33509738030315 H 0.0 **** 0.06
23656 C 34.1372556860142 0.16634645170088902 245.18007517221622 C 0.0 **** -0.24
23657 H 34.17148088091923 -0.8461569543847531 245.58278978798546 H 0.0 **** 0.06
23658 H 34.18696670258829 0.12521011950761363 244.0920121292387 H 0.0 **** 0.06
23659 H 34.9819553249106 0.7379353137163491 245.56299846719486 H 0.0 **** 0.06
23660 H 33.20639345243633 0.6453638707342293 245.4841859854972 H 0.0 **** 0.06
23661 C 175.16330193908004 77.09702098941705 60.03757684580262 C 0.0 **** -0.24
23662 H 174.82858845813485 77.81754098024956 59.292475926097154 H 0.0 **** 0.06
23663 H 174.8629161618221 76.09389868741124 59.73321585780337 H 0.0 **** 0.06
23664 H 174.71337292243734 77.33509775311845 61.00123856045758 H 0.0 **** 0.06
23665 H 176.24972652696295 77.14132467464785 60.12341030330171 H 0.0 **** 0.06
23666 C 238.64644943509094 209.29967266157237 126.5644671319028 C 0.0 **** -0.24
23667 H 237.92323710653898 208.50771508797817 126.37457063141935 H 0.0 **** 0.06
23668 H 238.29958403900594 209.9187863432311 127.39248357268156 H 0.0 **** 0.06
23669 H 238.75467754412114 209.915307769826 125.6715653131715 H 0.0 **** 0.06
23670 H 239.6101084290429 208.85808564873633 126.81977445554548 H 0.0 **** 0.06
23671 C 16.572440013533793 25.107387118305198 94.9372643808781 C 0.0 **** -0.24
23672 H 16.722037912656077 25.011437321149202 96.01334601720094 H 0.0 **** 0.06
23673 H 15.520320597042968 24.946781043636562 94.7011288366675 H 0.0 **** 0.06
23674 H 17.179651023262267 24.364491840331212 94.41937059679111 H 0.0 **** 0.06
23675 H 16.868866275266868 26.10617545016487 94.61728952889553 H 0.0 **** 0.06
23676 C 128.9558069814485 36.72850251664467 203.96009400020438 C 0.0 **** -0.24
23677 H 128.0459692892332 36.69373737516233 203.36144859525012 H 0.0 **** 0.06
23678 H 129.80622648234998 36.950411459964286 203.31510356152447 H 0.0 **** 0.06
23679 H 129.10912402998744 35.76422024965743 204.44487453173144 H 0.0 **** 0.06
23680 H 128.86152100929445 37.50635056160992 204.7183605438891 H 0.0 **** 0.06
23681 C 185.72295735760892 93.63738474417198 212.0416648000388 C 0.0 **** -0.24
23682 H 184.64448185452957 93.62746178561031 212.2027663317416 H 0.0 **** 0.06
23683 H 186.10837999868005 94.639197967195 212.2309614511268 H 0.0 **** 0.06
23684 H 185.93811666763838 93.3524310142621 211.01186461991458 H 0.0 **** 0.06
23685 H 186.19783274690053 92.92972579565779 212.7216741765254 H 0.0 **** 0.06
23686 C 121.62075003938719 205.32815750906187 57.44575157762827 C 0.0 **** -0.24
23687 H 120.58891335742803 205.55282858703038 57.1752251649865 H 0.0 **** 0.06
23688 H 122.20559654932649 206.2477419603374 57.43878291883348 H 0.0 **** 0.06
23689 H 122.03914261143225 204.62473026125798 56.72560483190861 H 0.0 **** 0.06
23690 H 121.64677303859528 204.88700868321206 58.44188715117511 H 0.0 **** 0.06
23691 C 158.3201120587084 218.45943053982657 172.89409237211854 C 0.0 **** -0.24
23692 H 157.35620870387584 218.93006181025538 172.6991228773369 H 0.0 **** 0.06
23693 H 158.2822326284246 217.93621703079165 173.84904856603214 H 0.0 **** 0.06
23694 H 159.09645881359884 219.22384700614276 172.92801511042472 H 0.0 **** 0.06
23695 H 158.54505819422812 217.74912448230913 172.09862577453268 H 0.0 **** 0.06
23696 C 187.63256111575944 239.0414981523436 205.23161542727445 C 0.0 **** -0.24
23697 H 188.0359869178347 239.2376533259005 204.23743015577378 H 0.0 **** 0.06
23698 H 188.44390445332732 238.7619377605489 205.90312755505195 H 0.0 **** 0.06
23699 H 186.90978703302895 238.2276067958635 205.17503757423145 H 0.0 **** 0.06
23700 H 187.14054362174 239.93848543025214 205.6077193731297 H 0.0 **** 0.06
23701 C 61.57499654137837 7.980757556640924 45.12597245891001 C 0.0 **** -0.24
23702 H 61.1874066440827 8.846342562278295 44.58896758369612 H 0.0 **** 0.06
23703 H 60.83443393611432 7.18047913663915 45.107586103497155 H 0.0 **** 0.06
23704 H 61.78399226463853 8.258594135929371 46.159392121482554 H 0.0 **** 0.06
23705 H 62.49280915855863 7.63753750340905 44.64837685009205 H 0.0 **** 0.06
23706 C 206.70266487184537 70.5714229768491 144.0974681029699 C 0.0 **** -0.24
23707 H 205.63402906964276 70.62977226931002 144.30606929940447 H 0.0 **** 0.06
23708 H 206.85839050906645 70.50857986711284 143.02006295759588 H 0.0 **** 0.06
23709 H 207.1182554673683 69.6865159091906 144.57759880396415 H 0.0 **** 0.06
23710 H 207.19710350659994 71.46247228144378 144.4851498648066 H 0.0 **** 0.06
23711 C 25.666132612112165 206.12808576731064 126.46056985674181 C 0.0 **** -0.24
23712 H 25.482043720190788 205.3571848533519 127.20961968217443 H 0.0 **** 0.06
23713 H 25.091294135666644 205.90592746740506 125.56193368040871 H 0.0 **** 0.06
23714 H 26.728873293205908 206.14851761831068 126.21595307776954 H 0.0 **** 0.06
23715 H 25.365784273936413 207.09812804294154 126.85533107295976 H 0.0 **** 0.06
23716 C 21.251560449943923 211.68274422673838 160.68276094957258 C 0.0 **** -0.24
23717 H 20.895467303920597 211.75154031304763 161.71051010963342 H 0.0 **** 0.06
23718 H 21.43108123311319 212.68496820614942 160.2928186990775 H 0.0 **** 0.06
23719 H 20.49992276055613 211.18374281832945 160.07057310788088 H 0.0 **** 0.06
23720 H 22.178778567380093 211.11082573080893 160.6572196169971 H 0.0 **** 0.06
23721 C 164.76529469553105 168.55662510715706 25.971296398237783 C 0.0 **** -0.24
23722 H 164.552638056632 167.49033154519532 26.047136765345513 H 0.0 **** 0.06
23723 H 163.83188980051162 169.1035499074879 25.83094628978 H 0.0 **** 0.06
23724 H 165.42352776716143 168.73627202548545 25.12182964326489 H 0.0 **** 0.06
23725 H 165.25097466836363 168.89632077174812 26.88644906043278 H 0.0 **** 0.06
23726 C 116.88954558027831 168.92778319661213 193.5364424060773 C 0.0 **** -0.24
23727 H 117.13681609486477 169.5423212592243 194.40199473267737 H 0.0 **** 0.06
23728 H 117.69046798402539 168.996522300109 192.80102973453106 H 0.0 **** 0.06
23729 H 115.95873869578705 169.282456672652 193.0943419267736 H 0.0 **** 0.06
23730 H 116.7711768650459 167.89097573788123 193.85005475012593 H 0.0 **** 0.06
23731 C 60.85218391333689 19.40692746136844 134.55392915198013 C 0.0 **** -0.24
23732 H 60.212877604576846 18.683253372227313 134.04799849658784 H 0.0 **** 0.06
23733 H 61.452243729127844 19.94038931709494 133.81604010540818 H 0.0 **** 0.06
23734 H 61.51000960033579 18.886631210270792 135.25048837479005 H 0.0 **** 0.06
23735 H 60.23319278791715 20.11834256782012 135.10128105829824 H 0.0 **** 0.06
23736 C 247.71673761037826 211.7342954218713 14.131545403979288 C 0.0 **** -0.24
23737 H 248.23426588647686 212.6190585635895 13.760248703961366 H 0.0 **** 0.06
23738 H 247.83807285462518 210.91794008241465 13.418496105644607 H 0.0 **** 0.06
23739 H 246.6572381383283 211.95718618668147 14.251932825277294 H 0.0 **** 0.06
23740 H 248.13911536800097 211.4436934611784 15.093162840428562 H 0.0 **** 0.06
23741 C 148.15493751428045 222.30901382211442 186.58730225465263 C 0.0 **** -0.24
23742 H 147.85498725664903 222.5761415877099 187.60051356879944 H 0.0 **** 0.06
23743 H 147.42701942164499 221.6161449132527 186.16348093763477 H 0.0 **** 0.06
23744 H 149.1360102003763 221.8346702549897 186.61220474854105 H 0.0 **** 0.06
23745 H 148.20113095421112 223.2083039784302 185.97308734922387 H 0.0 **** 0.06
23746 C 203.13930272797083 120.16074984946746 233.3315638519657 C 0.0 **** -0.24
23747 H 204.0856980689183 119.64281156826985 233.4860771575305 H 0.0 **** 0.06
23748 H 203.26692013756224 121.22228027283961 233.5481268794465 H 0.0 **** 0.06
23749 H 202.38286035243652 119.74263679686274 233.99519550450174 H 0.0 **** 0.06
23750 H 202.8231157646267 120.03677354897488 232.2955038842864 H 0.0 **** 0.06
23751 C 94.03337779200032 157.1807795286962 6.105207105675518 C 0.0 **** -0.24
23752 H 94.02154432713459 158.01382774747123 6.808650928264299 H 0.0 **** 0.06
23753 H 94.88048639958626 156.5312166721903 6.324953934187974 H 0.0 **** 0.06
23754 H 94.12299268985416 157.56575300295458 5.089288228286648 H 0.0 **** 0.06
23755 H 93.10619372068962 156.6142370513018 6.19819043643129 H 0.0 **** 0.06
23756 C 195.8449069577791 15.063528002338074 1.79199977883124 C 0.0 **** -0.24
23757 H 194.98172176233234 15.380393749354113 2.378159309383946 H 0.0 **** 0.06
23758 H 195.93100403961225 15.691198571344216 0.9046996469568427 H 0.0 **** 0.06
23759 H 195.71714488549 14.023739989207542 1.4911687489993 H 0.0 **** 0.06
23760 H 196.74817350335556 15.159309885972789 2.395071875574814 H 0.0 **** 0.06
23761 C 6.707709185880418 123.45801419301682 236.197226016069 C 0.0 **** -0.24
23762 H 6.449320786038612 124.44408873952386 235.81294099195486 H 0.0 **** 0.06
23763 H 6.793605677579308 123.50291550467006 237.282949385453 H 0.0 **** 0.06
23764 H 7.658754011195441 123.13875592774042 235.76982049558592 H 0.0 **** 0.06
23765 H 5.929156268708255 122.74629660013292 235.92319319128228 H 0.0 **** 0.06
23766 C 177.1177437091892 224.23682801383777 112.03828985071576 C 0.0 **** -0.24
23767 H 176.96354814467057 225.009752979107 112.79073937584178 H 0.0 **** 0.06
23768 H 176.16880143523926 223.74166945974724 111.8267924311308 H 0.0 **** 0.06
23769 H 177.8350139559533 223.50478789146007 112.41049171676735 H 0.0 **** 0.06
23770 H 177.50171290118084 224.69098950066603 111.12451658664742 H 0.0 **** 0.06
23771 C 143.39932552805428 177.59292964665855 233.81421572030678 C 0.0 **** -0.24
23772 H 144.04764778918766 177.95076063297034 234.61467047208714 H 0.0 **** 0.06
23773 H 142.3961651585789 177.99624648538477 233.95108926097654 H 0.0 **** 0.06
23774 H 143.3592648006439 176.50391702267763 233.84080920675916 H 0.0 **** 0.06
23775 H 143.79567185431577 177.91923230536378 232.8533704045406 H 0.0 **** 0.06
23776 C 242.84014538799255 221.77731592786108 122.28333342228368 C 0.0 **** -0.24
23777 H 242.30458998587 222.653198481677 121.91718764292077 H 0.0 **** 0.06
23778 H 243.90411846483963 222.00470614603182 122.35182103226859 H 0.0 **** 0.06
23779 H 242.6888619642864 220.94561293071536 121.59510306767228 H 0.0 **** 0.06
23780 H 242.4616175388192 221.5059064241156 123.2694014367546 H 0.0 **** 0.06
23781 C 96.35520234236546 11.320271309159892 134.1019963730634 C 0.0 **** -0.24
23782 H 95.72935899759108 11.56405501041101 133.24273029263983 H 0.0 **** 0.06
23783 H 95.7250477311018 11.165460724991789 134.97767463347452 H 0.0 **** 0.06
23784 H 97.04595619278197 12.142191856598146 134.29160466975665 H 0.0 **** 0.06
23785 H 96.9189664865819 10.41137994179931 133.89378486296616 H 0.0 **** 0.06
23786 C 60.792803739981196 221.82689780541898 164.8789365933541 C 0.0 **** -0.24
23787 H 61.84755078339367 222.0996811854855 164.8516333592026 H 0.0 **** 0.06
23788 H 60.47346396457178 221.7190683249068 165.91614221070628 H 0.0 **** 0.06
23789 H 60.64935726747095 220.88326835051123 164.35378507455118 H 0.0 **** 0.06
23790 H 60.20382090075799 222.60543345077764 164.39524038483614 H 0.0 **** 0.06
23791 C 41.995976023394206 103.2090506136548 196.61504826736382 C 0.0 **** -0.24
23792 H 41.97922465441772 103.14166357980136 195.52670826530857 H 0.0 **** 0.06
23793 H 41.087790680409086 103.70122652748486 196.962287114434 H 0.0 **** 0.06
23794 H 42.866163367358666 103.78653635627617 196.92869102930484 H 0.0 **** 0.06
23795 H 42.05326320916035 102.20763879800944 197.03937373674597 H 0.0 **** 0.06
23796 C 110.92976378780187 6.799194455612934 53.58211481227059 C 0.0 **** -0.24
23797 H 111.72647870324678 6.575974959710436 54.29270539975269 H 0.0 **** 0.06
23798 H 110.93505339783874 6.054033573941993 52.78592836410206 H 0.0 **** 0.06
23799 H 111.09058449353486 7.788987445970932 53.156095921132135 H 0.0 **** 0.06
23800 H 109.96938787008352 6.776127472775158 54.09602391791472 H 0.0 **** 0.06
23801 C 104.80687723673597 208.11505523329885 105.15683915320929 C 0.0 **** -0.24
23802 H 104.7236007924204 209.13104543572126 104.77321369225791 H 0.0 **** 0.06
23803 H 104.36936036885257 208.06680295320382 106.15451760173954 H 0.0 **** 0.06
23804 H 105.8577646738141 207.8294790799366 105.2064216798079 H 0.0 **** 0.06
23805 H 104.27662490235784 207.43142965059806 104.49411591547783 H 0.0 **** 0.06
23806 C 48.8470574885948 25.436078519919946 159.66004459786282 C 0.0 **** -0.24
23807 H 48.31069470406 24.99024764783806 158.8221410412971 H 0.0 **** 0.06
23808 H 48.68999109050887 24.831478317589003 160.55440153460384 H 0.0 **** 0.06
23809 H 48.474513849701964 26.445233616088856 159.83403825222956 H 0.0 **** 0.06
23810 H 49.91174425691099 25.47573069715051 159.43043981395473 H 0.0 **** 0.06
23811 C 144.28188754341508 221.4074892424514 174.1105450850774 C 0.0 **** -0.24
23812 H 144.45945464287865 220.74261919961364 173.265852649634 H 0.0 **** 0.06
23813 H 144.84077653028723 221.05165207156313 174.97608571240917 H 0.0 **** 0.06
23814 H 143.21759760459537 221.42160912024062 174.34497017320558 H 0.0 **** 0.06
23815 H 144.6102292269137 222.41491402607966 173.85506981802655 H 0.0 **** 0.06
23816 C 119.00242134669483 113.64523525783866 81.17853728103975 C 0.0 **** -0.24
23817 H 119.02399946351622 114.65693234140298 80.77417487029663 H 0.0 **** 0.06
23818 H 120.02214916677684 113.29736212436976 81.34240619580646 H 0.0 **** 0.06
23819 H 118.50147269479112 112.98338592520048 80.47169678763942 H 0.0 **** 0.06
23820 H 118.46038676229742 113.64306634089303 82.12440533619994 H 0.0 **** 0.06
23821 C 246.88592287033754 197.962646526754 190.81565136465065 C 0.0 **** -0.24
23822 H 246.94618813746212 198.2048534333882 191.876687877186 H 0.0 **** 0.06
23823 H 247.32332875362357 196.979911394387 190.64243960951586 H 0.0 **** 0.06
23824 H 247.43374089163876 198.7110413775509 190.24143960094707 H 0.0 **** 0.06
23825 H 245.84235888949746 197.95829773836965 190.50299682321676 H 0.0 **** 0.06
23826 C 239.3313268164846 183.85005410326906 160.0074313118836 C 0.0 **** -0.24
23827 H 238.9738838717161 184.62317924912486 160.68848463652466 H 0.0 **** 0.06
23828 H 240.33506188011813 184.10383603852011 159.66500580089905 H 0.0 **** 0.06
23829 H 238.6615807954093 183.78211497323596 159.15100145675837 H 0.0 **** 0.06
23830 H 239.35661556923264 182.89218036341865 160.52756490276818 H 0.0 **** 0.06
23831 C 121.0264124162693 235.26125386938995 155.34681312388975 C 0.0 **** -0.24
23832 H 121.11658072797698 235.8054152341452 156.28752172072697 H 0.0 **** 0.06
23833 H 121.9558732064516 234.72775365175363 155.14630942722383 H 0.0 **** 0.06
23834 H 120.82831431871722 235.96434223696644 154.5386816704374 H 0.0 **** 0.06
23835 H 120.20508260657778 234.54811534049412 155.4184256442613 H 0.0 **** 0.06
23836 C 2.4010254637404103 1.9061493751194405 121.06664340283689 C 0.0 **** -0.24
23837 H 2.6576912103448933 0.9286928652584692 121.47615291873274 H 0.0 **** 0.06
23838 H 2.6749892090115566 2.6814467115530505 121.78303818766477 H 0.0 **** 0.06
23839 H 1.3295144056326365 1.9495293889302303 120.87547912583256 H 0.0 **** 0.06
23840 H 2.943991418136619 2.062635753231106 120.13542455692871 H 0.0 **** 0.06
23841 C 188.9409850625577 11.209275733426253 217.6544340412572 C 0.0 **** -0.24
23842 H 188.66368337241835 10.383065659345263 218.30829659943834 H 0.0 **** 0.06
23843 H 190.02666015496328 11.255929883082999 217.5667211142553 H 0.0 **** 0.06
23844 H 188.5703871288115 12.144377814536199 218.0741361219898 H 0.0 **** 0.06
23845 H 188.50375259876057 11.055325053425136 216.66818279307353 H 0.0 **** 0.06
23846 C 38.73123942475357 7.884464444419933 117.62161393970311 C 0.0 **** -0.24
23847 H 39.10276215285758 8.776577736622443 117.11692957270694 H 0.0 **** 0.06
23848 H 39.32623692795737 7.699108798798278 118.51522336966804 H 0.0 **** 0.06
23849 H 38.80676092960668 7.0300003666441455 116.94963164526328 H 0.0 **** 0.06
23850 H 37.688584493309065 8.034627360724159 117.9019162104162 H 0.0 **** 0.06
23851 C 152.40475490844824 234.08384668890335 78.33803227267188 C 0.0 **** -0.24
23852 H 151.52767603713085 234.72590464130892 78.25463076314873 H 0.0 **** 0.06
23853 H 153.2756137717669 234.68976362521303 78.58623796583669 H 0.0 **** 0.06
23854 H 152.57372719171934 233.5752086756911 77.38884983018966 H 0.0 **** 0.06
23855 H 152.2400176020872 233.34444945015088 79.12217378944581 H 0.0 **** 0.06
23856 C 23.459063724327592 69.62625617420503 89.05252544196193 C 0.0 **** -0.24
23857 H 24.099183200236467 70.12214043337949 88.32275943275758 H 0.0 **** 0.06
23858 H 22.468249478142894 69.47875612484219 88.62424349944476 H 0.0 **** 0.06
23859 H 23.381502585296033 70.24459515379411 89.94665727924215 H 0.0 **** 0.06
23860 H 23.890497458883004 68.65959678414592 89.31473935696633 H 0.0 **** 0.06
23861 C 247.40371618858003 63.10205471956044 5.5314774951336005 C 0.0 **** -0.24
23862 H 247.79085331842117 63.94462546074084 4.957829549651066 H 0.0 **** 0.06
23863 H 246.54814471749302 62.67106740232214 5.010792401507004 H 0.0 **** 0.06
23864 H 247.0936044312618 63.44718058891141 6.517664292261145 H 0.0 **** 0.06
23865 H 248.18292425736786 62.347534515810054 5.638746388369512 H 0.0 **** 0.06
23866 C 142.87671404305405 126.1523625969173 104.6926716556483 C 0.0 **** -0.24
23867 H 142.37554895381885 126.76729017441971 103.94600962755717 H 0.0 **** 0.06
23868 H 143.50797838070065 125.41677188974353 104.19295050506295 H 0.0 **** 0.06
23869 H 142.13117599833143 125.63872306519829 105.30035005117884 H 0.0 **** 0.06
23870 H 143.4913317532388 126.78551383153962 105.3313837494236 H 0.0 **** 0.06
23871 C 239.86838100134355 233.2374718997286 244.31818254410643 C 0.0 **** -0.24
23872 H 240.00568246743202 234.27993455742728 244.6026829278718 H 0.0 **** 0.06
23873 H 239.0026537983743 233.15038019379958 243.66181297459786 H 0.0 **** 0.06
23874 H 239.70892830677016 232.63535029495074 245.21182115413848 H 0.0 **** 0.06
23875 H 240.7579080042948 232.88421659053446 243.79588188946846 H 0.0 **** 0.06
23876 C 230.49745860273634 152.31316961595698 11.087297372856753 C 0.0 **** -0.24
23877 H 230.9295555127932 153.30982887547864 11.174836768949575 H 0.0 **** 0.06
23878 H 230.44750224122984 151.85095269358064 12.074086339707236 H 0.0 **** 0.06
23879 H 231.11862468025853 151.70481409630267 10.431311232020832 H 0.0 **** 0.06
23880 H 229.49199877042867 152.38850676889763 10.670111043918865 H 0.0 **** 0.06
23881 C 153.60591311339223 18.247330880395438 180.78487905423106 C 0.0 **** -0.24
23882 H 153.97202380081401 18.47022254376489 179.7832679377222 H 0.0 **** 0.06
23883 H 154.43653872734757 18.274552185928897 181.4894680475502 H 0.0 **** 0.06
23884 H 153.15443112196394 17.255214412375764 180.7935101234999 H 0.0 **** 0.06
23885 H 152.86011898346317 18.9876679470068 181.07188027154956 H 0.0 **** 0.06
23886 C 200.7325247978414 22.113398598297948 184.74229006216623 C 0.0 **** -0.24
23887 H 200.44969600290227 23.127686745603853 185.0239352218676 H 0.0 **** 0.06
23888 H 199.92439987351207 21.42644814334281 184.99721312150493 H 0.0 **** 0.06
23889 H 201.63674808204783 21.826101422978155 185.27847766931765 H 0.0 **** 0.06
23890 H 200.91799069054366 22.073054239667172 183.66897868905713 H 0.0 **** 0.06
23891 C 7.9826287934616005 7.147838493832452 107.61509528338425 C 0.0 **** -0.24
23892 H 8.11207979173561 7.673540595720141 106.6694540718693 H 0.0 **** 0.06
23893 H 8.861116869093976 7.3066752360935965 108.24166465186653 H 0.0 **** 0.06
23894 H 7.860798240434647 6.081426167492694 107.42383200657247 H 0.0 **** 0.06
23895 H 7.098187139615561 7.530013922307305 108.1250692772854 H 0.0 **** 0.06
23896 C 21.740389797684003 102.82679116956757 201.34303150635623 C 0.0 **** -0.24
23897 H 21.587267235445182 102.49161854741592 202.36828140363798 H 0.0 **** 0.06
23898 H 22.7142906738396 103.31026119077049 201.26103516910453 H 0.0 **** 0.06
23899 H 20.958412684180644 103.53584213784086 201.07206272006175 H 0.0 **** 0.06
23900 H 21.70160757649157 101.96932263476876 200.67173930972334 H 0.0 **** 0.06
23901 C 246.02495444396112 140.9734131025218 114.2246718599753 C 0.0 **** -0.24
23902 H 245.90306967960157 140.14471175102423 113.52640919183656 H 0.0 **** 0.06
23903 H 246.9762990425581 141.4699640540962 114.03572433114849 H 0.0 **** 0.06
23904 H 246.00969384157366 140.59217149199918 115.24563195511516 H 0.0 **** 0.06
23905 H 245.21067775161052 141.68442432198168 114.09035109178163 H 0.0 **** 0.06
23906 C 207.28370029321738 173.8846148966611 52.61736281262556 C 0.0 **** -0.24
23907 H 206.2031463153309 173.7436346364144 52.643251739557414 H 0.0 **** 0.06
23908 H 207.512256565346 174.85864820649795 52.1862135358821 H 0.0 **** 0.06
23909 H 207.7365894784218 173.1017860783245 52.00872252576531 H 0.0 **** 0.06
23910 H 207.68077144674987 173.83221530795322 53.63160556507566 H 0.0 **** 0.06
23911 C 184.44629228770827 99.32666469958912 58.20461239666895 C 0.0 **** -0.24
23912 H 184.2557855605148 98.47763636384337 57.54662557279866 H 0.0 **** 0.06
23913 H 184.9220902144517 98.97555034415751 59.11977992370856 H 0.0 **** 0.06
23914 H 183.5041144552778 99.81552031318694 58.447794772519075 H 0.0 **** 0.06
23915 H 185.10413230415855 100.03513200967524 57.70076504218119 H 0.0 **** 0.06
23916 C 211.47910326144597 108.82337445131296 69.17546395851406 C 0.0 **** -0.24
23917 H 211.5717780322768 109.86687895067695 69.4773734166985 H 0.0 **** 0.06
23918 H 210.56737087855583 108.69314925664324 68.59253855258379 H 0.0 **** 0.06
23919 H 211.43658395917973 108.19125064243718 70.0628579947701 H 0.0 **** 0.06
23920 H 212.34101152206895 108.5426344284918 68.56993298366629 H 0.0 **** 0.06
23921 C 237.48859640830622 21.547096305197044 26.02996096534821 C 0.0 **** -0.24
23922 H 237.2221693616694 21.978514609171924 26.995631436932484 H 0.0 **** 0.06
23923 H 237.01901308560645 20.568239417332478 25.928283662137005 H 0.0 **** 0.06
23924 H 238.57107032333442 21.438937481810058 25.967156074239398 H 0.0 **** 0.06
23925 H 237.1408851568125 22.201642454011036 25.23108313474529 H 0.0 **** 0.06
23926 C 237.92547811710227 13.248142069782517 77.50485330025995 C 0.0 **** -0.24
23927 H 237.348050868604 13.956257137143808 76.9099512919434 H 0.0 **** 0.06
23928 H 238.8375137906889 13.729645726077507 77.85882185305996 H 0.0 **** 0.06
23929 H 238.18460128281032 12.385844988266825 76.89023024442665 H 0.0 **** 0.06
23930 H 237.33163191434534 12.921946867802006 78.35823770316674 H 0.0 **** 0.06
23931 C 233.96951698241423 99.86814254777462 217.49034208217915 C 0.0 **** -0.24
23932 H 233.27547971613006 99.10534042035331 217.13681872982383 H 0.0 **** 0.06
23933 H 233.4091160722988 100.7447490876564 217.81744814557217 H 0.0 **** 0.06
23934 H 234.64271116696364 100.14890054020628 216.6802179492762 H 0.0 **** 0.06
23935 H 234.54910410085245 99.47331545622717 218.3243965784104 H 0.0 **** 0.06
23936 C 149.28540027337533 56.68204653192788 194.8132202136635 C 0.0 **** -0.24
23937 H 150.18761831162038 57.123528088315766 194.39110387189848 H 0.0 **** 0.06
23938 H 149.1246375512527 57.0744959591008 195.81700273836418 H 0.0 **** 0.06
23939 H 149.3991979702083 55.59845188534135 194.86036156791505 H 0.0 **** 0.06
23940 H 148.4298143829524 56.93038570436741 194.184045339092 H 0.0 **** 0.06
23941 C 205.3220085088757 99.4582879236489 97.05430967277633 C 0.0 **** -0.24
23942 H 205.91122889713253 98.9035367197072 96.32434597390679 H 0.0 **** 0.06
23943 H 204.4261058218537 98.890659659531 97.30536762621563 H 0.0 **** 0.06
23944 H 205.0362932532932 100.42165298125528 96.63174709854422 H 0.0 **** 0.06
23945 H 205.91625976427142 99.61815090661364 97.9548594251819 H 0.0 **** 0.06
23946 C 12.914987826157159 75.20143333564874 162.04323165703573 C 0.0 **** -0.24
23947 H 12.309275452795674 75.99455143808134 162.48336093389776 H 0.0 **** 0.06
23948 H 12.29949744132827 74.61020999613118 161.36470816848 H 0.0 **** 0.06
23949 H 13.303301000234313 74.56065103577211 162.83424081130875 H 0.0 **** 0.06
23950 H 13.744261178513085 75.64178290161286 161.49150299594288 H 0.0 **** 0.06
23951 C 143.74028947415093 116.51521102179746 140.01065460842753 C 0.0 **** -0.24
23952 H 143.66787547141104 115.5457209414063 139.51813378483618 H 0.0 **** 0.06
23953 H 143.18622639596276 117.25659085323414 139.43471830793885 H 0.0 **** 0.06
23954 H 144.78761404838167 116.8128942257093 140.0746274927022 H 0.0 **** 0.06
23955 H 143.32099738117012 116.44508453293847 141.01400996869629 H 0.0 **** 0.06
23956 C 221.0898415008519 163.59816230131622 52.86039719950986 C 0.0 **** -0.24
23957 H 222.16202690384296 163.55158862617165 52.66627626707189 H 0.0 **** 0.06
23958 H 220.556205552736 163.04789160517015 52.08485131821733 H 0.0 **** 0.06
23959 H 220.7654091168103 164.6380670950055 52.85771330162278 H 0.0 **** 0.06
23960 H 220.87870104356955 163.15403826072102 53.832840568957636 H 0.0 **** 0.06
23961 C 86.472641778722 15.802731827488586 120.30425141954547 C 0.0 **** -0.24
23962 H 86.89692538990514 16.70456667724126 120.74419900525132 H 0.0 **** 0.06
23963 H 86.70776979295482 14.945945002277568 120.93526387322427 H 0.0 **** 0.06
23964 H 86.89593584353167 15.650143981973798 119.31094549333974 H 0.0 **** 0.06
23965 H 85.39092807390438 15.91060877334219 120.22564739519183 H 0.0 **** 0.06
23966 C 134.99436313231647 202.60022307536732 235.03485335372272 C 0.0 **** -0.24
23967 H 135.93815716393706 202.50712302266663 234.49811433959624 H 0.0 **** 0.06
23968 H 134.8242317934756 201.70125046363114 235.62807519146 H 0.0 **** 0.06
23969 H 134.1798356131526 202.72470579816166 234.3211625640379 H 0.0 **** 0.06
23970 H 135.03566234364243 203.46766344005948 235.69339883836975 H 0.0 **** 0.06
23971 C 2.518531958981754 94.43970185146767 151.3176742779836 C 0.0 **** -0.24
23972 H 2.928773291454263 95.12728273087248 152.0578230198498 H 0.0 **** 0.06
23973 H 2.625199081815765 94.8719032651999 150.32256140243985 H 0.0 **** 0.06
23974 H 1.46350699389356 94.2669401687186 151.52791529100026 H 0.0 **** 0.06
23975 H 3.0580881614711757 93.49349127760917 151.36390444025508 H 0.0 **** 0.06
23976 C 116.24385064091365 30.856904342364103 7.049820441326631 C 0.0 **** -0.24
23977 H 116.9337509200806 30.856950221260362 7.893424120282731 H 0.0 **** 0.06
23978 H 115.7447707293044 29.889476697986623 6.988277201105433 H 0.0 **** 0.06
23979 H 116.79630563740679 31.03988611197471 6.127835233118418 H 0.0 **** 0.06
23980 H 115.5000856575362 31.642153107337236 7.188725464066465 H 0.0 **** 0.06
23981 C 11.686569138263692 55.387075737251706 136.24312734452627 C 0.0 **** -0.24
23982 H 10.80975214807006 54.73906713727982 136.22171707524146 H 0.0 **** 0.06
23983 H 11.773037905188303 55.849906388666255 137.22654969346195 H 0.0 **** 0.06
23984 H 11.583942728342052 56.16159405147775 135.48334726725355 H 0.0 **** 0.06
23985 H 12.579102630422994 54.79496122886408 136.03984195978458 H 0.0 **** 0.06
23986 C 113.50362960414404 102.00963428047274 118.89826990759897 C 0.0 **** -0.24
23987 H 113.75435167744394 100.9907830224235 118.60257052060533 H 0.0 **** 0.06
23988 H 112.92584801152731 101.9886232294827 119.82237192433624 H 0.0 **** 0.06
23989 H 112.91414189172932 102.48154000231224 118.11209829964022 H 0.0 **** 0.06
23990 H 114.42017683587557 102.57759086767254 119.0560388858141 H 0.0 **** 0.06
23991 C 190.1343604860951 12.9849081992935 130.88168749103176 C 0.0 **** -0.24
23992 H 189.6850471107502 13.488680586661602 130.02519612933872 H 0.0 **** 0.06
23993 H 190.29770385036264 11.934279923882244 130.64038322790066 H 0.0 **** 0.06
23994 H 189.46574361161365 13.06109388925725 131.73919363416385 H 0.0 **** 0.06
23995 H 191.08731996043434 13.456449100601134 131.12071465053882 H 0.0 **** 0.06
23996 C 64.1807113048215 196.8115974971858 154.28280315524643 C 0.0 **** -0.24
23997 H 64.73198298542027 197.23399674203586 153.4418858023359 H 0.0 **** 0.06
23998 H 64.42796625038446 197.3606499459121 155.19063296105315 H 0.0 **** 0.06
23999 H 64.45288320981516 195.76324018505227 154.40548962581462 H 0.0 **** 0.06
24000 H 63.111156970739216 196.88941593181997 154.0897607283053 H 0.0 **** 0.06
24001 C 3.743080896090902 81.91881576524062 242.78800026086998 C 0.0 **** -0.24
24002 H 3.6205206364569307 82.99863999658336 242.87062095397422 H 0.0 **** 0.06
24003 H 2.7959017601721143 81.4671440447257 242.49489805972934 H 0.0 **** 0.06
24004 H 4.0563129793115 81.51418244023714 243.75103770297272 H 0.0 **** 0.06
24005 H 4.500577516854406 81.69582061088633 242.03630843288596 H 0.0 **** 0.06
24006 C 237.25894260589357 163.9994265752828 30.284832107562835 C 0.0 **** -0.24
24007 H 237.65325378882525 163.14071525938533 30.8296762612284 H 0.0 **** 0.06
24008 H 238.05382097663085 164.7292178440012 30.13453361018091 H 0.0 **** 0.06
24009 H 236.45078742415424 164.45324945533966 30.85870192527537 H 0.0 **** 0.06
24010 H 236.87779896983113 163.6709098256367 29.3173798590162 H 0.0 **** 0.06
24011 C 37.02542994888316 46.24496942154168 33.09554922280684 C 0.0 **** -0.24
24012 H 37.14431063627305 46.644240658555034 34.10215113906061 H 0.0 **** 0.06
24013 H 36.52369799508003 46.983584688272444 32.46913233386364 H 0.0 **** 0.06
24014 H 36.42725293518586 45.33439652806064 33.1342252932255 H 0.0 **** 0.06
24015 H 38.00540474766561 46.018503818888775 32.67627450730768 H 0.0 **** 0.06
24016 C 136.9851843354153 173.4732506988125 65.3005352868523 C 0.0 **** -0.24
24017 H 136.97332328694714 174.09920704351174 64.40819816427435 H 0.0 **** 0.06
24018 H 137.58866395890587 172.58489008266577 65.11204036237262 H 0.0 **** 0.06
24019 H 135.96771251458782 173.1758162720245 65.55010372269444 H 0.0 **** 0.06
24020 H 137.41367269035624 174.0344905515723 66.13149385138499 H 0.0 **** 0.06
24021 C 90.4878660475909 9.849428038360685 180.02364292956395 C 0.0 **** -0.24
24022 H 90.77748904510094 9.216151678594386 179.1847268751515 H 0.0 **** 0.06
24023 H 90.24624996840225 9.22347290466351 180.88388616872032 H 0.0 **** 0.06
24024 H 89.61466059001475 10.439835171393028 179.74706887092992 H 0.0 **** 0.06
24025 H 91.31142938212489 10.51498104330021 180.27809956608945 H 0.0 **** 0.06
24026 C 27.46304152821841 45.3884986800344 184.60977299196645 C 0.0 **** -0.24
24027 H 27.402000363095254 44.351150152903685 184.28266052508297 H 0.0 **** 0.06
24028 H 27.89167601474057 45.42882828794443 185.61115532100916 H 0.0 **** 0.06
24029 H 26.46382863994998 45.824295818102385 184.6249067958518 H 0.0 **** 0.06
24030 H 28.094145791757768 45.94975062591175 183.92122580844054 H 0.0 **** 0.06
24031 C 200.53650842897127 211.05710386065283 56.87885997161888 C 0.0 **** -0.24
24032 H 201.12600841860592 211.94988177297267 56.67043989205729 H 0.0 **** 0.06
24033 H 199.8086908895769 211.27598125356332 57.6598419688371 H 0.0 **** 0.06
24034 H 201.19794518017494 210.25605985301348 57.21205437635601 H 0.0 **** 0.06
24035 H 200.01670630699726 210.74508627971258 55.97296408734502 H 0.0 **** 0.06
24036 C 203.87130569868015 64.80373176602251 216.3464574752762 C 0.0 **** -0.24
24037 H 204.63036438568258 65.5809084863046 216.2502138407796 H 0.0 **** 0.06
24038 H 203.112320480518 65.12454046687569 217.06043281890177 H 0.0 **** 0.06
24039 H 204.33731168716395 63.88401076749298 216.69995609155217 H 0.0 **** 0.06
24040 H 203.4085390776233 64.62694102727639 215.37615100487736 H 0.0 **** 0.06
24041 C 129.13607600823963 133.49745854725052 240.88381578023342 C 0.0 **** -0.24
24042 H 128.12454497415015 133.25308361206632 241.20793678522398 H 0.0 **** 0.06
24043 H 129.84881781651794 132.85870275608934 241.40620618101036 H 0.0 **** 0.06
24044 H 129.34738634214608 134.5421453693536 241.1134719624019 H 0.0 **** 0.06
24045 H 129.2222499292793 133.33635843050465 239.80967036751412 H 0.0 **** 0.06
24046 C 189.46000435805271 88.72083125540735 57.90765102128421 C 0.0 **** -0.24
24047 H 188.43589311522072 89.07240041761989 57.78682120357294 H 0.0 **** 0.06
24048 H 189.45031532626433 87.68641539809042 58.253573761371655 H 0.0 **** 0.06
24049 H 189.9748816188934 89.34308325693041 58.638967924111654 H 0.0 **** 0.06
24050 H 189.97930199141544 88.779440357743 56.950283523766785 H 0.0 **** 0.06
24051 C 167.01424084627902 124.22660499019887 30.433321942532842 C 0.0 **** -0.24
24052 H 166.09869928979884 124.1779149446304 31.022188225785186 H 0.0 **** 0.06
24053 H 167.4830779406416 125.2011952067399 30.57225813636451 H 0.0 **** 0.06
24054 H 166.77655876687416 124.08397474662686 29.379452213526392 H 0.0 **** 0.06
24055 H 167.69882045391446 123.44379541211356 30.760712381312317 H 0.0 **** 0.06
24056 C 21.16555322799624 144.27008402150238 197.03603226419756 C 0.0 **** -0.24
24057 H 20.627177400461534 144.83217835087396 196.27330098978882 H 0.0 **** 0.06
24058 H 20.999736509154758 143.20259309598396 196.88469976084411 H 0.0 **** 0.06
24059 H 20.802473193071222 144.5586756159046 198.0228176290488 H 0.0 **** 0.06
24060 H 22.23062067335573 144.4865183232198 196.96331305539124 H 0.0 **** 0.06
24061 C 233.5276747339272 143.2390403466389 36.31103533331303 C 0.0 **** -0.24
24062 H 233.69358669799118 143.16393073954325 37.386241986570155 H 0.0 **** 0.06
24063 H 232.4566729174 143.2476342934704 36.109382614483906 H 0.0 **** 0.06
24064 H 233.986095120089 142.3850794199641 35.81251446859879 H 0.0 **** 0.06
24065 H 233.97527107705645 144.16114328166526 35.93924202093119 H 0.0 **** 0.06
24066 C 236.1089048051085 128.4476446846225 156.01186278514086 C 0.0 **** -0.24
24067 H 236.7308018610322 127.64739349901168 156.4130805079765 H 0.0 **** 0.06
24068 H 236.73706257215423 129.17056828917438 155.4916543192734 H 0.0 **** 0.06
24069 H 235.5833190619471 128.942841672399 156.8283829254617 H 0.0 **** 0.06
24070 H 235.38295951957548 128.0279001254246 155.31488536453475 H 0.0 **** 0.06
24071 C 160.48467218920877 184.71648248668342 156.6498389602348 C 0.0 **** -0.24
24072 H 160.8695833610679 184.4310159556786 155.67098564355402 H 0.0 **** 0.06
24073 H 161.31741814690224 184.96258741248008 157.30907496470542 H 0.0 **** 0.06
24074 H 159.9184727733022 183.88734641766936 157.07324557560108 H 0.0 **** 0.06
24075 H 159.83494612245357 185.5847095338979 156.54466105751266 H 0.0 **** 0.06
24076 C 59.0299785307931 149.02858439842322 127.73058929196031 C 0.0 **** -0.24
24077 H 60.08522753701047 148.93355506295202 127.98506035489638 H 0.0 **** 0.06
24078 H 58.91541775772552 149.7486245497291 126.91910694579096 H 0.0 **** 0.06
24079 H 58.47504976798004 149.3733486939224 128.60348574869136 H 0.0 **** 0.06
24080 H 58.6438761257285 148.05984134639192 127.4138000892359 H 0.0 **** 0.06
24081 C 125.60214079184388 194.85583024654866 47.65152710126793 C 0.0 **** -0.24
24082 H 125.53994814925753 195.4298958663609 48.57679750631323 H 0.0 **** 0.06
24083 H 126.6029456651001 194.95474400290013 47.229418989749746 H 0.0 **** 0.06
24084 H 124.8680668002217 195.2343599454982 46.94029422104714 H 0.0 **** 0.06
24085 H 125.3973518055796 193.80627082309323 47.86066353641891 H 0.0 **** 0.06
24086 C 52.55112758629761 152.84842626667205 134.15595822456658 C 0.0 **** -0.24
24087 H 51.98709415125549 152.2890644529928 133.40844084607315 H 0.0 **** 0.06
24088 H 53.22900601647288 153.5408389707212 133.65576320217716 H 0.0 **** 0.06
24089 H 53.12644255273719 152.15656249314293 134.76966724338988 H 0.0 **** 0.06
24090 H 51.86114072197594 153.40769853062505 134.78793546501763 H 0.0 **** 0.06
24091 C 32.79648383871675 111.72569600595284 28.66486590649717 C 0.0 **** -0.24
24092 H 33.1627021621084 111.21634146849246 29.555512105183453 H 0.0 **** 0.06
24093 H 33.56077648933315 111.69423614103025 27.88815451016322 H 0.0 **** 0.06
24094 H 32.569035732715136 112.76398437867897 28.90851564136173 H 0.0 **** 0.06
24095 H 31.8936283998829 111.23029013843782 28.308105973742187 H 0.0 **** 0.06
24096 C 49.1505546083134 102.71964616006844 200.15747390337674 C 0.0 **** -0.24
24097 H 49.63276849967346 103.65419695782768 200.44768272172365 H 0.0 **** 0.06
24098 H 48.47989360797416 102.39467651229765 200.95380683229428 H 0.0 **** 0.06
24099 H 49.91039909460025 101.95762657685358 199.9875913887488 H 0.0 **** 0.06
24100 H 48.57953392031726 102.8755737112082 199.24211247568448 H 0.0 **** 0.06
24101 C 227.8807546699045 82.76196106132696 120.15096968338634 C 0.0 **** -0.24
24102 H 227.77058819779472 82.87177803781015 121.22969492488212 H 0.0 **** 0.06
24103 H 226.9566757110939 83.06597267169835 119.65895282306391 H 0.0 **** 0.06
24104 H 228.09497808799725 81.72065642285793 119.91132506825952 H 0.0 **** 0.06
24105 H 228.70055709850416 83.39127545420746 119.80314939694611 H 0.0 **** 0.06
24106 C 228.7305739129165 6.564639510347362 73.3939308831913 C 0.0 **** -0.24
24107 H 228.42921123460815 5.714408880203877 72.78257912314618 H 0.0 **** 0.06
24108 H 228.12565364096957 6.593246681627747 74.30067818620549 H 0.0 **** 0.06
24109 H 228.58617782313283 7.486888213153335 72.83115235785573 H 0.0 **** 0.06
24110 H 229.78324512351315 6.464066756990476 73.66232804004719 H 0.0 **** 0.06
24111 C 35.3704858548094 138.87469547414128 162.8958891177198 C 0.0 **** -0.24
24112 H 36.37345549793693 138.99411085496547 162.48517578881112 H 0.0 **** 0.06
24113 H 34.91687289161314 139.85517019270682 163.03751244092953 H 0.0 **** 0.06
24114 H 35.43000525270091 138.35976865421247 163.85445751643866 H 0.0 **** 0.06
24115 H 34.76341582229375 138.28903308098447 162.2052929192264 H 0.0 **** 0.06
24116 C 157.4331023105139 187.10116331888557 57.58125430728026 C 0.0 **** -0.24
24117 H 158.00280254860616 186.70520757112268 56.741333929532914 H 0.0 **** 0.06
24118 H 157.92190365078457 186.82186140265313 58.51534438410147 H 0.0 **** 0.06
24119 H 156.42405895906867 186.69035752241652 57.561794764276556 H 0.0 **** 0.06
24120 H 157.38466560165452 188.18804159584207 57.50708507118148 H 0.0 **** 0.06
24121 C 40.75073302073659 136.41778514439176 45.7229572203359 C 0.0 **** -0.24
24122 H 40.491419705497094 135.80582898980632 46.586906778381746 H 0.0 **** 0.06
24123 H 39.87991970871336 136.51873341764477 45.07516775521253 H 0.0 **** 0.06
24124 H 41.561711243282176 135.94343504656248 45.171073293963275 H 0.0 **** 0.06
24125 H 41.06946638430516 137.404305672351 46.06054552953711 H 0.0 **** 0.06
24126 C 241.0044319147638 180.65656979075612 187.82977711317255 C 0.0 **** -0.24
24127 H 241.7331937543522 180.1363839258754 187.20783063629028 H 0.0 **** 0.06
24128 H 241.4642195215177 181.54419247598884 188.26335742440432 H 0.0 **** 0.06
24129 H 240.66941372590406 179.99420685264323 188.62705667890305 H 0.0 **** 0.06
24130 H 240.15032736461677 180.9512712842915 187.21871407866655 H 0.0 **** 0.06
24131 C 92.08746513975876 121.22401226537858 47.5887541392988 C 0.0 **** -0.24
24132 H 93.16134776880241 121.11284927361632 47.439440860773374 H 0.0 **** 0.06
24133 H 91.66222377364679 121.78962045044887 46.75951669847721 H 0.0 **** 0.06
24134 H 91.90393887011498 121.7532946040865 48.52314906211133 H 0.0 **** 0.06
24135 H 91.62419217183984 120.2377588303722 47.63243364390782 H 0.0 **** 0.06
24136 C 17.179980510573984 44.640908216937234 245.9007185980015 C 0.0 **** -0.24
24137 H 16.535328384799158 44.12531254003031 245.18823609791127 H 0.0 **** 0.06
24138 H 16.586740043833487 45.350326654119115 246.47927526464724 H 0.0 **** 0.06
24139 H 17.96249320779728 45.175064340466534 245.362358423604 H 0.0 **** 0.06
24140 H 17.632923503476746 43.91317236316421 246.57305462158723 H 0.0 **** 0.06
24141 C 166.12747585971175 110.85496392768002 219.0929660526421 C 0.0 **** -0.24
24142 H 165.11528638830907 111.25544696500322 219.1466165590041 H 0.0 **** 0.06
24143 H 166.83917594797487 111.62316695827485 219.3933768472061 H 0.0 **** 0.06
24144 H 166.33944457217322 110.54202088230679 218.0700127321138 H 0.0 **** 0.06
24145 H 166.2143734073424 109.9972407521812 219.76029456545234 H 0.0 **** 0.06
24146 C 145.66057276833936 171.3754924983308 57.89086654101166 C 0.0 **** -0.24
24147 H 146.2617606333283 172.03382618926128 57.26387972307097 H 0.0 **** 0.06
24148 H 144.73345720754142 171.12746759272258 57.37264364794248 H 0.0 **** 0.06
24149 H 145.42916077772935 171.87813078255394 58.829512271099304 H 0.0 **** 0.06
24150 H 146.21711746781165 170.4607625008622 58.09595091989274 H 0.0 **** 0.06
24151 C 4.553510506893218 35.74696246879208 78.94450757564638 C 0.0 **** -0.24
24152 H 4.294502470141595 35.23856269574401 79.87311409856588 H 0.0 **** 0.06
24153 H 5.638355878383749 35.80847238265045 78.85401654351037 H 0.0 **** 0.06
24154 H 4.1313739174212 36.75177759879071 78.95112734924359 H 0.0 **** 0.06
24155 H 4.148811054103248 35.18905121966594 78.09982126444064 H 0.0 **** 0.06
24156 C 56.47446034213684 0.028536201033801945 224.4159699818401 C 0.0 **** -0.24
24157 H 56.991943219350475 0.7575442350191963 223.79333661006228 H 0.0 **** 0.06
24158 H 55.441681922513226 0.3449707745849082 224.5642483415747 H 0.0 **** 0.06
24159 H 56.97477530667348 -0.044717634466650225 225.38117947888568 H 0.0 **** 0.06
24160 H 56.489338466730345 -0.9445225952378848 223.92463324079316 H 0.0 **** 0.06
24161 C 48.22158995270772 2.2998607117823155 113.40186966905222 C 0.0 **** -0.24
24162 H 49.0312837949044 1.696695598564574 112.99253937934861 H 0.0 **** 0.06
24163 H 48.240777624923936 2.2435041491974204 114.49044366487348 H 0.0 **** 0.06
24164 H 47.266829906123434 1.9247337497039325 113.03445494858255 H 0.0 **** 0.06
24165 H 48.347751432075626 3.33672656119451 113.09010363257079 H 0.0 **** 0.06
24166 C 183.68007601518372 162.08409565073643 164.94794301288078 C 0.0 **** -0.24
24167 H 184.31165218277738 162.95928835799006 165.09898881552468 H 0.0 **** 0.06
24168 H 183.25823190197286 161.77005025303336 165.90321659219543 H 0.0 **** 0.06
24169 H 184.2756940229175 161.27303096299087 164.52941365093483 H 0.0 **** 0.06
24170 H 182.87254655688253 162.33400426326685 164.2590348632432 H 0.0 **** 0.06
24171 C 44.00972762178023 226.1598603165331 62.244343406532266 C 0.0 **** -0.24
24172 H 44.022492204917086 225.60713414960514 61.304779453284254 H 0.0 **** 0.06
24173 H 44.04399770391305 227.2295074630392 62.037012476682605 H 0.0 **** 0.06
24174 H 44.876201055637495 225.87690142845287 62.8431677865307 H 0.0 **** 0.06
24175 H 43.09760048824435 225.9239908692685 62.79084706378231 H 0.0 **** 0.06
24176 C 134.8648227143573 171.68820041346507 111.03028108306546 C 0.0 **** -0.24
24177 H 133.87845228870648 171.24309454999008 111.16046065782217 H 0.0 **** 0.06
24178 H 135.23581829368052 172.03793587822804 111.99365429904108 H 0.0 **** 0.06
24179 H 134.79652759621356 172.5283884699411 110.33998450493243 H 0.0 **** 0.06
24180 H 135.54910143314004 170.94123163259238 110.62697865091414 H 0.0 **** 0.06
24181 C 145.30775053648162 14.098663639208368 106.66782691696281 C 0.0 **** -0.24
24182 H 144.59197339266584 14.524865930162534 107.3708569717505 H 0.0 **** 0.06
24183 H 145.09369436023653 13.039110238284565 106.52771584289903 H 0.0 **** 0.06
24184 H 146.31707004325236 14.216523998457347 107.06158907076664 H 0.0 **** 0.06
24185 H 145.22889432479923 14.6149301095641 105.7111832023501 H 0.0 **** 0.06
24186 C 188.09114551870803 14.449061848200785 119.32359401276923 C 0.0 **** -0.24
24187 H 188.90622959839325 14.769709321601653 118.6747676027135 H 0.0 **** 0.06
24188 H 188.20836563811656 13.391277806605927 119.55785439863982 H 0.0 **** 0.06
24189 H 187.14036902844865 14.606054923221876 118.81460500991474 H 0.0 **** 0.06
24190 H 188.11124788297485 15.031351594126448 120.24521601939531 H 0.0 **** 0.06
24191 C 2.56765266424442 23.549815950818626 74.46256250112853 C 0.0 **** -0.24
24192 H 3.6504850069914454 23.487921377122078 74.57334947438417 H 0.0 **** 0.06
24193 H 2.21430700242459 24.496536392424403 74.87196184649349 H 0.0 **** 0.06
24194 H 2.1000048479790507 22.724872534558642 74.99990731373151 H 0.0 **** 0.06
24195 H 2.3060953080615434 23.48975779418909 73.40640610632008 H 0.0 **** 0.06
24196 C 125.13575568190265 66.45664639194356 40.023475500905505 C 0.0 **** -0.24
24197 H 124.86995561621583 66.44811542006306 41.08104730799499 H 0.0 **** 0.06
24198 H 126.19540378584978 66.68836589284751 39.9178226072451 H 0.0 **** 0.06
24199 H 124.54482677292648 67.21345535485636 39.50659950307954 H 0.0 **** 0.06
24200 H 124.93200542406751 65.47781063024502 39.589412196143286 H 0.0 **** 0.06
24201 C 12.254200255328442 20.395173269690133 121.60847232488604 C 0.0 **** -0.24
24202 H 12.111114446194946 19.47551701542517 122.17513658786459 H 0.0 **** 0.06
24203 H 12.942031370334789 20.21069237458795 120.78281941180495 H 0.0 **** 0.06
24204 H 12.668113709301338 21.163948133206816 122.26060607357266 H 0.0 **** 0.06
24205 H 11.295321902566414 20.730922338545213 121.21398476686764 H 0.0 **** 0.06
24206 C 116.39054535315546 101.64158973889295 116.36575201613888 C 0.0 **** -0.24
24207 H 115.50207123325134 102.26988080721713 116.43315117330386 H 0.0 **** 0.06
24208 H 116.32798676258474 100.84193074927569 117.10436727463855 H 0.0 **** 0.06
24209 H 117.27827539149445 102.24485289594108 116.55665124257831 H 0.0 **** 0.06
24210 H 116.45317429416579 101.2090571282859 115.36680370247493 H 0.0 **** 0.06
24211 C 53.53241293707387 154.7240621948154 174.0204816069634 C 0.0 **** -0.24
24212 H 54.3049157170627 155.37356294350676 174.43232357011243 H 0.0 **** 0.06
24213 H 52.63717787616898 154.7849829463071 174.63949971585475 H 0.0 **** 0.06
24214 H 53.894033706982185 153.6958419852037 174.0056091630518 H 0.0 **** 0.06
24215 H 53.29501535600613 155.0411331709897 173.004991600261 H 0.0 **** 0.06
24216 C 25.179842569618046 201.8362697433188 101.41421245265451 C 0.0 **** -0.24
24217 H 24.164726198186173 201.4448166635444 101.34899124168905 H 0.0 **** 0.06
24218 H 25.57985280230011 201.643444730817 102.40888671209837 H 0.0 **** 0.06
24219 H 25.16694963213567 202.91049407566817 101.22870927418663 H 0.0 **** 0.06
24220 H 25.80600808728215 201.34567565133756 100.66877315009845 H 0.0 **** 0.06
24221 C 202.26597205373767 193.91216247079677 142.2291490698448 C 0.0 **** -0.24
24222 H 202.61666648333497 193.09179919421888 142.8557399135182 H 0.0 **** 0.06
24223 H 202.50149941331023 193.69906745236398 141.18589360909672 H 0.0 **** 0.06
24224 H 202.7591916525198 194.83645987897506 142.53122406856536 H 0.0 **** 0.06
24225 H 201.1880777888907 194.02207917496452 142.34355112630075 H 0.0 **** 0.06
24226 C 22.1263115263838 229.41935823634475 166.2433438850994 C 0.0 **** -0.24
24227 H 21.70289613344579 229.74710733935692 165.29440527243125 H 0.0 **** 0.06
24228 H 21.368545374290704 229.49537528336947 167.02440307315015 H 0.0 **** 0.06
24229 H 22.978148111557104 230.04985494898943 166.49938665978556 H 0.0 **** 0.06
24230 H 22.454852444675865 228.38312386812524 166.1558637127249 H 0.0 **** 0.06
24231 C 177.7755527738917 227.9969206920136 108.93291666965732 C 0.0 **** -0.24
24232 H 177.99337293582573 228.91317167919 109.48141286085138 H 0.0 **** 0.06
24233 H 176.92050423976573 228.16255282656357 108.2762290835959 H 0.0 **** 0.06
24234 H 177.54297812518405 227.19923650373107 109.6379617260404 H 0.0 **** 0.06
24235 H 178.64242935033727 227.71476044531332 108.33719429746972 H 0.0 **** 0.06
24236 C 202.64699295193998 3.431661883074213 98.95799647213767 C 0.0 **** -0.24
24237 H 202.61582372537228 4.47369245302643 98.63943354052654 H 0.0 **** 0.06
24238 H 203.51376018545392 2.9422323188648676 98.51365669762345 H 0.0 **** 0.06
24239 H 201.73755075926925 2.9260066724455243 98.63294066395866 H 0.0 **** 0.06
24240 H 202.71896111696282 3.3859919464103427 100.04426596026039 H 0.0 **** 0.06
24241 C 85.73992571724537 167.60187608087367 57.10790988299175 C 0.0 **** -0.24
24242 H 86.21874230841456 166.6444851395847 56.90179867764596 H 0.0 **** 0.06
24243 H 86.37771646448795 168.41091985069505 56.75184709307038 H 0.0 **** 0.06
24244 H 85.58451929599431 167.70615424994526 58.18136294167013 H 0.0 **** 0.06
24245 H 84.77837919687491 167.64375856217217 56.59558213357474 H 0.0 **** 0.06
24246 C 129.547206550993 55.10051961700512 101.85330708887545 C 0.0 **** -0.24
24247 H 128.89846533332337 55.69188401489495 102.50027274528674 H 0.0 **** 0.06
24248 H 130.38496902814845 55.71492448087358 101.52119524156248 H 0.0 **** 0.06
24249 H 128.9805308315974 54.7578357651374 100.98744394875138 H 0.0 **** 0.06
24250 H 129.9243906965938 54.23997855372082 102.40583470591989 H 0.0 **** 0.06
24251 C 245.6475829983445 102.05754360207578 115.73814533420065 C 0.0 **** -0.24
24252 H 245.0666724049787 102.9133439722516 115.39574765883935 H 0.0 **** 0.06
24253 H 245.02303279197423 101.42409229095259 116.36849369079906 H 0.0 **** 0.06
24254 H 246.50662960415997 102.40622883495666 116.31063035450012 H 0.0 **** 0.06
24255 H 245.99291955846627 101.48463631974116 114.87713460132497 H 0.0 **** 0.06
24256 C 211.8267416543723 137.687310379359 149.7218567806998 C 0.0 **** -0.24
24257 H 212.77921646950375 138.15226122022088 149.97545687388072 H 0.0 **** 0.06
24258 H 211.009177440091 138.32430591627298 150.06198620852095 H 0.0 **** 0.06
24259 H 211.75648841150465 136.71460861368575 150.20824892874728 H 0.0 **** 0.06
24260 H 211.76193391533698 137.55899046085207 148.6413853445415 H 0.0 **** 0.06
24261 C 152.35142934903203 72.44234359841025 34.427285988518776 C 0.0 **** -0.24
24262 H 152.72350279214632 73.33032766326394 34.939148500209825 H 0.0 **** 0.06
24263 H 152.61080251518672 71.55528232783269 35.00537199790071 H 0.0 **** 0.06
24264 H 152.80474922488204 72.3767003639802 33.4379929940321 H 0.0 **** 0.06
24265 H 151.26872859117 72.50836747591623 34.3280566105465 H 0.0 **** 0.06
24266 C 10.111746943952625 132.51076361576042 141.48773154896136 C 0.0 **** -0.24
24267 H 10.584464256808232 133.46932074145366 141.2741334540217 H 0.0 **** 0.06
24268 H 9.987884440257105 131.95325230100332 140.55856805591407 H 0.0 **** 0.06
24269 H 9.135952017679074 132.67996449621762 141.9427094496468 H 0.0 **** 0.06
24270 H 10.739855579269772 131.94143450351487 142.1731084351462 H 0.0 **** 0.06
24271 C 105.04912993601101 192.48393212226256 14.04130395415649 C 0.0 **** -0.24
24272 H 103.96480596175925 192.4473701149587 13.935628464584255 H 0.0 **** 0.06
24273 H 105.51478750033263 192.03288116243903 13.163546208993893 H 0.0 **** 0.06
24274 H 105.34597082700208 191.93250740057857 14.933311705500813 H 0.0 **** 0.06
24275 H 105.37065691249629 193.5203391949417 14.130731729289977 H 0.0 **** 0.06
24276 C 209.7277845899622 228.7287184670098 246.25168919521562 C 0.0 **** -0.24
24277 H 209.859545062532 229.54875130923782 246.95704150231492 H 0.0 **** 0.06
24278 H 208.67708191866257 228.4407477339219 246.22108985043195 H 0.0 **** 0.06
24279 H 210.32929230666772 227.8764466029835 246.56867138869174 H 0.0 **** 0.06
24280 H 210.04649748033344 229.04911029552966 245.25937737594705 H 0.0 **** 0.06
24281 C 154.29239303103748 120.45744230100291 155.09868581252275 C 0.0 **** -0.24
24282 H 153.4150951521153 119.96398244887769 154.68173693759647 H 0.0 **** 0.06
24283 H 153.98572010918295 121.36964125408807 155.61256846329692 H 0.0 **** 0.06
24284 H 154.98488835401406 120.70657769345507 154.2956301871184 H 0.0 **** 0.06
24285 H 154.78188771376207 119.78926545327099 155.80704040039114 H 0.0 **** 0.06
24286 C 156.28671764892042 191.70774687358016 155.19753038584096 C 0.0 **** -0.24
24287 H 156.67020889713612 190.6904720561605 155.11355428303222 H 0.0 **** 0.06
24288 H 156.67423657799998 192.16844439597918 156.1057767367494 H 0.0 **** 0.06
24289 H 155.1976718639615 191.68209694543242 155.23826035995265 H 0.0 **** 0.06
24290 H 156.60383443931065 192.2872670018869 154.33117830949428 H 0.0 **** 0.06
24291 C 97.6403024557541 188.4176348792951 0.08781667930830395 C 0.0 **** -0.24
24292 H 97.20249011248708 189.3648553916578 0.40306297014764425 H 0.0 **** 0.06
24293 H 98.52646847579899 188.20951407257476 0.6874299581404273 H 0.0 **** 0.06
24294 H 97.91944774944872 188.47967879520917 -0.9640017586706335 H 0.0 **** 0.06
24295 H 96.91265163242727 187.61783861865317 0.2243735790199537 H 0.0 **** 0.06
24296 C 110.94851401050857 130.51356993713583 183.6241509602383 C 0.0 **** -0.24
24297 H 110.10301157785494 130.95661139518592 183.09706986555736 H 0.0 **** 0.06
24298 H 110.58525681994684 129.7600001271057 184.32421405852654 H 0.0 **** 0.06
24299 H 111.48337956857978 131.2896625617563 184.17093577601452 H 0.0 **** 0.06
24300 H 111.62050551039454 130.04653940998222 182.90390413922407 H 0.0 **** 0.06
24301 C 50.06195187271743 130.59640497761455 182.4385232212328 C 0.0 **** -0.24
24302 H 49.977934736026484 130.64159037577286 183.52394662306023 H 0.0 **** 0.06
24303 H 49.54559908074545 129.70867921771642 182.07150230773567 H 0.0 **** 0.06
24304 H 51.11345212073891 130.54750187964754 182.15769538634598 H 0.0 **** 0.06
24305 H 49.60909730775133 131.48631176217447 182.00176445074868 H 0.0 **** 0.06
24306 C 159.42269416271006 97.06488730698129 245.32499724787806 C 0.0 **** -0.24
24307 H 160.35432705922102 97.60710340398109 245.4842938632344 H 0.0 **** 0.06
24308 H 159.20677829157788 96.44900111819959 246.19875014232247 H 0.0 **** 0.06
24309 H 159.5212278095629 96.4268413007872 244.4460569793758 H 0.0 **** 0.06
24310 H 158.6104911882376 97.77448571354853 245.17032019972666 H 0.0 **** 0.06
24311 C 202.20500324097836 119.67053714186747 246.34761949669084 C 0.0 **** -0.24
24312 H 202.57407115510043 120.41023648622391 247.05775069541127 H 0.0 **** 0.06
24313 H 201.13316452238462 119.80636530407105 246.20396352223682 H 0.0 **** 0.06
24314 H 202.39617911843104 118.6687384032538 246.73482701145187 H 0.0 **** 0.06
24315 H 202.7190361938644 119.79462077385656 245.39445689508912 H 0.0 **** 0.06
24316 C 119.19062730209498 244.04430152389213 32.88853975267352 C 0.0 **** -0.24
24317 H 118.87120468384583 243.9048228433113 33.92158499039044 H 0.0 **** 0.06
24318 H 119.48205060571914 243.0821962762452 32.46576850085802 H 0.0 **** 0.06
24319 H 120.03992187793202 244.72693104236168 32.859244131657064 H 0.0 **** 0.06
24320 H 118.36857460686309 244.46260421243488 32.30752185425406 H 0.0 **** 0.06
24321 C 49.755088081278416 22.789420979235388 120.7244526198628 C 0.0 **** -0.24
24322 H 49.730142098877096 23.692849497750714 121.33408544575548 H 0.0 **** 0.06
24323 H 49.199418195137255 21.99787358483796 121.2278751813578 H 0.0 **** 0.06
24324 H 50.78913378221779 22.47485578408272 120.58341788894927 H 0.0 **** 0.06
24325 H 49.30220791618369 22.992868991293605 119.75446033925553 H 0.0 **** 0.06
24326 C 22.403457752465528 182.9952200171315 117.75425911781068 C 0.0 **** -0.24
24327 H 23.045670679945232 183.57293661042138 117.09023001213475 H 0.0 **** 0.06
24328 H 22.925845516579926 182.09166033571725 118.06961368247991 H 0.0 **** 0.06
24329 H 21.488551674400952 182.72163458575804 117.22737633882147 H 0.0 **** 0.06
24330 H 22.152897855156226 183.59458987226856 118.62931859022868 H 0.0 **** 0.06
24331 C 203.37846940910896 161.68761258884476 179.1040478714791 C 0.0 **** -0.24
24332 H 204.44989891797687 161.6946599836975 179.304376878855 H 0.0 **** 0.06
24333 H 202.94586766250876 162.63925767990992 179.41240467154773 H 0.0 **** 0.06
24334 H 202.91069954937564 160.87736068997054 179.66287233664798 H 0.0 **** 0.06
24335 H 203.21014081608095 161.53954306667518 178.0377264084023 H 0.0 **** 0.06
24336 C 47.12918997660607 215.76490499295238 69.50394724082497 C 0.0 **** -0.24
24337 H 47.44708074087373 216.61022894346837 68.89338401496781 H 0.0 **** 0.06
24338 H 47.2056650887573 214.84698713547044 68.92260146036216 H 0.0 **** 0.06
24339 H 46.09535098864683 215.9125404283114 69.81667283509745 H 0.0 **** 0.06
24340 H 47.76767103648001 215.69299292552526 70.3849257695482 H 0.0 **** 0.06
24341 C 26.84593588729453 118.20516246090071 234.515037798183 C 0.0 **** -0.24
24342 H 27.330596302790724 118.63564643294424 235.3922016456925 H 0.0 **** 0.06
24343 H 27.104256036621365 118.79095921048574 233.63309821192698 H 0.0 **** 0.06
24344 H 25.76508845569751 118.21753618766934 234.65580104084341 H 0.0 **** 0.06
24345 H 27.18345934325791 117.17821054561614 234.3822099740952 H 0.0 **** 0.06
24346 C 147.54417705490553 53.570821000647356 208.01167110199458 C 0.0 **** -0.24
24347 H 148.06838130187543 52.62379029360358 208.14052884517207 H 0.0 **** 0.06
24348 H 146.75416331458374 53.653784061135724 208.7590632375752 H 0.0 **** 0.06
24349 H 147.10650423754186 53.610243813285564 207.01418129463337 H 0.0 **** 0.06
24350 H 148.24654000450204 54.394787147233274 208.132375835618 H 0.0 **** 0.06
24351 C 192.1854662741545 54.84066508419377 201.25932648461475 C 0.0 **** -0.24
24352 H 191.1245972154087 54.95651084480346 201.47894925031125 H 0.0 **** 0.06
24353 H 192.32207966127777 54.0273943759627 200.54716000240802 H 0.0 **** 0.06
24354 H 192.72397246431257 54.612179665097784 202.17938032609936 H 0.0 **** 0.06
24355 H 192.5713755465469 55.76643630296033 200.83279365920777 H 0.0 **** 0.06
24356 C 110.75421307968355 186.97165451614683 9.241102880660065 C 0.0 **** -0.24
24357 H 110.45727951948422 186.35307600493394 8.39525322646162 H 0.0 **** 0.06
24358 H 110.1469034376002 186.71451094189024 10.110071676942425 H 0.0 **** 0.06
24359 H 110.60549361063593 188.023012009819 8.992767383425445 H 0.0 **** 0.06
24360 H 111.80579309104908 186.79733432506976 9.46785498115392 H 0.0 **** 0.06
24361 C 140.70981771620882 73.39368032897258 194.86619183889553 C 0.0 **** -0.24
24362 H 141.36090001060677 74.23913060490813 195.09060720197317 H 0.0 **** 0.06
24363 H 139.80860506155773 73.4580618215277 195.47642814521907 H 0.0 **** 0.06
24364 H 141.23347903744295 72.46418339824217 195.0881284042096 H 0.0 **** 0.06
24365 H 140.43794847056543 73.41440336724051 193.81105950900906 H 0.0 **** 0.06
24366 C 111.3934974213301 15.31221817973453 114.26649042725953 C 0.0 **** -0.24
24367 H 111.59554535743797 16.301287743625338 114.6767617905744 H 0.0 **** 0.06
24368 H 112.33203524614143 14.772711399949273 114.14032088871375 H 0.0 **** 0.06
24369 H 110.89893783853105 15.413692366558891 113.30070247281662 H 0.0 **** 0.06
24370 H 110.7472486824486 14.76173228326779 114.95055286542924 H 0.0 **** 0.06
24371 C 195.43102069646005 147.88810554259368 239.3031916854772 C 0.0 **** -0.24
24372 H 196.46920530336004 148.16069701298858 239.4952833052143 H 0.0 **** 0.06
24373 H 194.7727582455619 148.53511305359922 239.88345834892 H 0.0 **** 0.06
24374 H 195.2692999218885 146.85012361727317 239.59277323903893 H 0.0 **** 0.06
24375 H 195.2146518023659 148.0077596730115 238.24141347713038 H 0.0 **** 0.06
24376 C 120.86900574452636 21.373146586993386 151.2131965483745 C 0.0 **** -0.24
24377 H 120.86369900050374 22.38354582131521 151.62255922229045 H 0.0 **** 0.06
24378 H 120.99630034544941 21.419511143385193 150.13149789131458 H 0.0 **** 0.06
24379 H 119.9243046422479 20.88140320624416 151.44714067129877 H 0.0 **** 0.06
24380 H 121.69123065481523 20.807732795649258 151.6523673756463 H 0.0 **** 0.06
24381 C 201.0078018246805 218.70624186592502 227.35717058537438 C 0.0 **** -0.24
24382 H 201.42991310422647 218.61283299777375 226.35566799541778 H 0.0 **** 0.06
24383 H 200.10379473730632 219.3127793980565 227.31487442135403 H 0.0 **** 0.06
24384 H 201.73501995647771 219.18248665894737 228.0140588907628 H 0.0 **** 0.06
24385 H 200.76413421666507 217.7160037203565 227.74173277579249 H 0.0 **** 0.06
24386 C 238.73945012964265 4.751395818180981 175.21476015112205 C 0.0 **** -0.24
24387 H 237.7039840847627 4.8083246985403605 175.54922948263976 H 0.0 **** 0.06
24388 H 239.40454165080473 4.88200429585298 176.0689862762659 H 0.0 **** 0.06
24389 H 238.92840092276978 5.537580013269334 174.4837385515896 H 0.0 **** 0.06
24390 H 238.9204582135419 3.7784269763875358 174.75759685566877 H 0.0 **** 0.06
24391 C 106.58668078051602 21.56888631596634 73.0076394269214 C 0.0 **** -0.24
24392 H 107.33164312242013 22.36145577204573 72.94697376153903 H 0.0 **** 0.06
24393 H 107.07701524199464 20.600517452013847 72.89833504526291 H 0.0 **** 0.06
24394 H 105.85387241791241 21.69704575887546 72.21075509817473 H 0.0 **** 0.06
24395 H 106.0842596473172 21.61512792142149 73.97429360318725 H 0.0 **** 0.06
24396 C 49.20827601401865 90.42618913109712 157.46608568831783 C 0.0 **** -0.24
24397 H 49.57348748237516 90.54233768832623 158.48628893327333 H 0.0 **** 0.06
24398 H 48.119884940328944 90.4674455969105 157.46320015606062 H 0.0 **** 0.06
24399 H 49.538018779287455 89.46508848179059 157.07072404871747 H 0.0 **** 0.06
24400 H 49.60530375961969 91.22909122373903 156.84481942544193 H 0.0 **** 0.06
24401 C 24.44073623028359 16.47777938720182 200.6886971712878 C 0.0 **** -0.24
24402 H 24.600898189269543 16.30996812660223 199.62403192380975 H 0.0 **** 0.06
24403 H 24.399442299596018 17.549644449279953 200.88599309850045 H 0.0 **** 0.06
24404 H 25.261493212661918 16.03451605095003 201.2530721928238 H 0.0 **** 0.06
24405 H 23.50073718479817 16.0157373126232 200.99114962920385 H 0.0 **** 0.06
24406 C 206.35599650910626 19.276594614938844 170.9347082471262 C 0.0 **** -0.24
24407 H 207.22769413435736 19.662797827022132 170.40560721094548 H 0.0 **** 0.06
24408 H 206.36636160894966 19.638508358589945 171.96424193011458 H 0.0 **** 0.06
24409 H 206.3823012244368 18.186957243527132 170.9329678810647 H 0.0 **** 0.06
24410 H 205.44867135366874 19.619900626981675 170.43818975920874 H 0.0 **** 0.06
24411 C 129.199736168237 241.75838186898955 180.00280550089667 C 0.0 **** -0.24
24412 H 128.7207239052539 242.01950003963003 179.05889336153984 H 0.0 **** 0.06
24413 H 129.11807699339494 242.59629342221103 180.6955252005436 H 0.0 **** 0.06
24414 H 130.2515140715831 241.5335019706842 179.82637182834912 H 0.0 **** 0.06
24415 H 128.7086297027159 240.88423204343292 180.43043161315398 H 0.0 **** 0.06
24416 C 192.66724908819393 203.76493493325842 63.85714355177615 C 0.0 **** -0.24
24417 H 191.66108169042454 203.65759675063708 64.26315248942987 H 0.0 **** 0.06
24418 H 192.72309985700173 204.6783936408434 63.263970337058 H 0.0 **** 0.06
24419 H 192.89780659623506 202.9063149128518 63.227263042734506 H 0.0 **** 0.06
24420 H 193.38464496831227 203.819318771162 64.67639389511984 H 0.0 **** 0.06
24421 C 141.7057272554981 193.1281194477818 96.35691461741013 C 0.0 **** -0.24
24422 H 140.86937981041092 192.8271812418193 95.72533269519971 H 0.0 **** 0.06
24423 H 141.32673852748508 193.48769322483938 97.31336158833255 H 0.0 **** 0.06
24424 H 142.26395365853574 193.92367771694228 95.86371294546342 H 0.0 **** 0.06
24425 H 142.36162529350608 192.27358420043205 96.52252814786974 H 0.0 **** 0.06
24426 C 181.939057543665 243.7059396343245 153.76965600141702 C 0.0 **** -0.24
24427 H 182.2498239809998 243.60984581222124 154.81081870947483 H 0.0 **** 0.06
24428 H 182.34031255015518 242.8715115916744 153.19350511719077 H 0.0 **** 0.06
24429 H 182.31700250724094 244.64416401588068 153.3626054023725 H 0.0 **** 0.06
24430 H 180.85075496873293 243.69732334244742 153.71379162057485 H 0.0 **** 0.06
24431 C 26.408562868193428 218.66707765371262 23.579214190671422 C 0.0 **** -0.24
24432 H 26.941233923683356 219.60704104354988 23.430268043934092 H 0.0 **** 0.06
24433 H 25.401775551500904 218.75184944448517 23.169870063939328 H 0.0 **** 0.06
24434 H 26.35113680904348 218.44664816633917 24.645230447388286 H 0.0 **** 0.06
24435 H 26.941913062169817 217.86420407385975 23.070663160369662 H 0.0 **** 0.06
24436 C 146.342091677121 16.06659631351299 140.49756248096713 C 0.0 **** -0.24
24437 H 145.65841328704118 16.017968706564602 139.64962333784075 H 0.0 **** 0.06
24438 H 147.36983182777743 16.057445012886006 140.13510972319938 H 0.0 **** 0.06
24439 H 146.1776661542637 15.205797070478425 141.1461451551181 H 0.0 **** 0.06
24440 H 146.16150518041707 16.983756051336798 141.0576152420955 H 0.0 **** 0.06
24441 C 118.32442219454941 233.0586997017612 36.813405451188615 C 0.0 **** -0.24
24442 H 117.83961691267865 232.18704808348394 36.37357268107483 H 0.0 **** 0.06
24443 H 117.97433844625496 233.18954271451187 37.838210340806896 H 0.0 **** 0.06
24444 H 118.07895556468318 233.94473384020483 36.229306835881346 H 0.0 **** 0.06
24445 H 119.40470579206686 232.91113362076356 36.81488072301073 H 0.0 **** 0.06
24446 C 35.13878911481197 95.56598094953151 234.05476252370786 C 0.0 **** -0.24
24447 H 35.09658900641408 96.21919730386657 234.92685490599524 H 0.0 **** 0.06
24448 H 34.61112665778293 94.63729956333941 234.27176202163787 H 0.0 **** 0.06
24449 H 36.17840239461786 95.34698769112123 233.81483600807462 H 0.0 **** 0.06
24450 H 34.66682777504536 96.06324469791866 233.2067119131138 H 0.0 **** 0.06
24451 C 149.5041396895275 219.18206421520927 231.7056736365455 C 0.0 **** -0.24
24452 H 149.86456535689942 220.03986390216633 231.13773560634945 H 0.0 **** 0.06
24453 H 149.0822383468454 218.4447829989553 231.0227737664039 H 0.0 **** 0.06
24454 H 148.73724512474882 219.50788635550873 232.4081472838006 H 0.0 **** 0.06
24455 H 150.33341707994643 218.73559339954667 232.25443805804628 H 0.0 **** 0.06
24456 C 151.17759225744703 225.8134769277111 219.4493269707493 C 0.0 **** -0.24
24457 H 150.19085830627978 225.79540897101595 219.91191018073147 H 0.0 **** 0.06
24458 H 151.93842550299053 225.63411929946113 220.2096691259539 H 0.0 **** 0.06
24459 H 151.3449178805972 226.78771560793982 218.98956866156024 H 0.0 **** 0.06
24460 H 151.23558531233112 225.0358535941681 218.6860908670467 H 0.0 **** 0.06
24461 C 155.2872216856759 115.99174375138435 137.32716493562128 C 0.0 **** -0.24
24462 H 154.49342113039987 116.26646021839221 138.02151722838346 H 0.0 **** 0.06
24463 H 154.97702037435033 115.1215402487903 136.74644589425654 H 0.0 **** 0.06
24464 H 156.19225294015575 115.75156879106251 137.88601016943656 H 0.0 **** 0.06
24465 H 155.48720185072258 116.82526048230588 136.6540710647936 H 0.0 **** 0.06
24466 C 152.77913620812134 112.57751193139265 179.29884427951706 C 0.0 **** -0.24
24467 H 153.21437929918002 111.81267322869488 179.94318719606383 H 0.0 **** 0.06
24468 H 152.47311288782157 112.12598298249816 178.35579343633344 H 0.0 **** 0.06
24469 H 153.51823973519282 113.35458662145516 179.1081496135622 H 0.0 **** 0.06
24470 H 151.91061275266338 113.01524054367871 179.79205645396326 H 0.0 **** 0.06
24471 C 207.5134732027164 118.86740265748185 158.33048028355728 C 0.0 **** -0.24
24472 H 206.48448538757754 119.18143844706654 158.15524282010122 H 0.0 **** 0.06
24473 H 208.18964060729218 119.50941988897728 157.765910460817 H 0.0 **** 0.06
24474 H 207.63744624940674 117.8343426282004 158.00648148210615 H 0.0 **** 0.06
24475 H 207.74014969363435 118.94473720315128 159.39386201462275 H 0.0 **** 0.06
24476 C 111.66987548105774 6.442468813282332 225.30963559406152 C 0.0 **** -0.24
24477 H 110.95578541912923 6.558788383993445 224.4939795904191 H 0.0 **** 0.06
24478 H 112.22155099805374 5.510539212458994 225.17944370288825 H 0.0 **** 0.06
24479 H 111.13554868341552 6.41884756848971 226.2593505399166 H 0.0 **** 0.06
24480 H 112.36587651842379 7.280392204148697 225.30411281471493 H 0.0 **** 0.06
24481 C 87.44632379780313 35.21386722008998 59.60091186129446 C 0.0 **** -0.24
24482 H 86.6689694223293 35.535246731395375 60.29362821526439 H 0.0 **** 0.06
24483 H 87.70697269712915 36.03931655080572 58.93860066452069 H 0.0 **** 0.06
24484 H 87.0811659298545 34.3739386446793 59.01023996848983 H 0.0 **** 0.06
24485 H 88.32830960135772 34.90648852300632 60.16357779810099 H 0.0 **** 0.06
24486 C 168.96101562683273 109.65426740147547 152.73824260208136 C 0.0 **** -0.24
24487 H 168.13828587660524 109.1663889049083 152.21447556338705 H 0.0 **** 0.06
24488 H 169.39524780305914 108.96001876520884 153.4581792829636 H 0.0 **** 0.06
24489 H 168.58720524097993 110.53440706091132 153.26144193743676 H 0.0 **** 0.06
24490 H 169.72104220836513 109.95522831888402 152.01721785179018 H 0.0 **** 0.06
24491 C 169.89845322158988 210.1791017368412 27.50480011948318 C 0.0 **** -0.24
24492 H 170.01500002107048 209.35345536812207 28.2061548637881 H 0.0 **** 0.06
24493 H 169.22952190611565 210.92730162452187 27.931992591911666 H 0.0 **** 0.06
24494 H 169.47838680716725 209.80600639359463 26.57098555699227 H 0.0 **** 0.06
24495 H 170.87173597926332 210.6307302029803 27.310424245803887 H 0.0 **** 0.06
24496 C 158.4889169890049 63.287129761245865 41.68192351783668 C 0.0 **** -0.24
24497 H 157.95273266107105 64.21060797301672 41.89749233514229 H 0.0 **** 0.06
24498 H 159.5511760120874 63.50183775999682 41.56492431705013 H 0.0 **** 0.06
24499 H 158.10306560552226 62.84952694709551 40.76082251208243 H 0.0 **** 0.06
24500 H 158.34780926393134 62.58509367715527 42.50412697334748 H 0.0 **** 0.06
24501 C 212.9528152580521 193.1710575407522 204.39766399641542 C 0.0 **** -0.24
24502 H 212.02175699772147 192.93575952998424 204.9133188532372 H 0.0 **** 0.06
24503 H 213.40338887492572 192.25084330041312 204.02447805588173 H 0.0 **** 0.06
24504 H 213.6387387353708 193.657629703463 205.09005410944678 H 0.0 **** 0.06
24505 H 212.74515218703746 193.83847384340373 203.56148931754976 H 0.0 **** 0.06
24506 C 56.133983428370726 71.5616042544149 177.25717775604886 C 0.0 **** -0.24
24507 H 56.905308317386385 71.25965117791094 176.5484755429181 H 0.0 **** 0.06
24508 H 55.63373283857976 70.67607504033623 177.64985947504928 H 0.0 **** 0.06
24509 H 55.40657610686091 72.19758191536383 176.75261896553542 H 0.0 **** 0.06
24510 H 56.591652148840126 72.11472378282187 178.0785368233549 H 0.0 **** 0.06
24511 C 164.74826123851273 86.77311778491409 78.20856413131708 C 0.0 **** -0.24
24512 H 165.38044897792267 86.87190090332419 77.32510437308599 H 0.0 **** 0.06
24513 H 164.54769522412855 87.76107529898118 78.62263391988103 H 0.0 **** 0.06
24514 H 165.25814592838546 86.16280076807118 78.95331529882625 H 0.0 **** 0.06
24515 H 163.80838382732048 86.29659626739911 77.93031556975342 H 0.0 **** 0.06
24516 C 236.20419827428094 49.303628475272575 173.5652685127782 C 0.0 **** -0.24
24517 H 236.62971269323597 49.78948663319974 172.68697704480076 H 0.0 **** 0.06
24518 H 236.7810528282204 49.581068045782075 174.4486074602127 H 0.0 **** 0.06
24519 H 236.2376658907901 48.222240742736375 173.43415003272438 H 0.0 **** 0.06
24520 H 235.16940500999536 49.62238765649508 173.69202046429191 H 0.0 **** 0.06
24521 C 63.60640952674882 146.73659676413183 2.0128961060125334 C 0.0 **** -0.24
24522 H 64.33874030226048 147.32482667434815 2.5659582887491865 H 0.0 **** 0.06
24523 H 62.824024083040456 146.39803765418492 2.6924483997059667 H 0.0 **** 0.06
24524 H 64.09834759426255 145.87224008186993 1.5657171237515684 H 0.0 **** 0.06
24525 H 63.16623086449553 147.3505144518852 1.2267508315222813 H 0.0 **** 0.06
24526 C 182.2916441460435 53.68678838465897 190.16016960898713 C 0.0 **** -0.24
24527 H 183.36459100306877 53.562828204206966 190.0149198909596 H 0.0 **** 0.06
24528 H 181.7982136538497 53.743130240349586 189.18882181658563 H 0.0 **** 0.06
24529 H 182.10471288224727 54.60418372208758 190.71732762573606 H 0.0 **** 0.06
24530 H 181.9002502897681 52.836537874382 190.71752180911795 H 0.0 **** 0.06
24531 C 104.51895042246113 142.91744692669286 153.5303831319901 C 0.0 **** -0.24
24532 H 104.8985744445819 143.6525823659223 152.82137675094637 H 0.0 **** 0.06
24533 H 104.46972813418157 143.36216860765617 154.52381221960727 H 0.0 **** 0.06
24534 H 105.18579807775032 142.05485262364382 153.55045431305496 H 0.0 **** 0.06
24535 H 103.52237637119231 142.59888843472226 153.22419655589746 H 0.0 **** 0.06
24536 C 25.55060543547573 71.68023939561633 106.87768648774698 C 0.0 **** -0.24
24537 H 25.638696313571785 70.59644468479425 106.80656979152752 H 0.0 **** 0.06
24538 H 24.753537753338307 71.93455420301467 107.57593905845411 H 0.0 **** 0.06
24539 H 25.31865137770876 72.09040325886181 105.89425194497159 H 0.0 **** 0.06
24540 H 26.492454259883274 72.09817907926757 107.23217876576632 H 0.0 **** 0.06
24541 C 74.40480728451917 184.28397205366235 177.7583356796008 C 0.0 **** -0.24
24542 H 73.84405279206112 183.35365071723544 177.85580973921662 H 0.0 **** 0.06
24543 H 75.4732679444923 184.06514173148815 177.75963599277276 H 0.0 **** 0.06
24544 H 74.1668289557816 184.94097352567783 178.59464240915128 H 0.0 **** 0.06
24545 H 74.13462267503033 184.77394982481496 176.82298621111147 H 0.0 **** 0.06
24546 C 82.1597006221549 133.93560141092942 104.24516553687425 C 0.0 **** -0.24
24547 H 82.87316511340865 133.13166237459535 104.4266373428803 H 0.0 **** 0.06
24548 H 81.60211468811085 134.13973241144888 105.15889308033184 H 0.0 **** 0.06
24549 H 81.46911103758674 133.63594014217583 103.45686627962326 H 0.0 **** 0.06
24550 H 82.69554577161304 134.83383000253514 103.93679084400534 H 0.0 **** 0.06
24551 C 236.97724133285675 147.19131420419953 47.801594592839166 C 0.0 **** -0.24
24552 H 236.0345213905968 147.36924521203693 48.3182658891602 H 0.0 **** 0.06
24553 H 236.78409610291706 146.6661355989318 46.865798178610774 H 0.0 **** 0.06
24554 H 237.62826086807922 146.58567360093295 48.43063956434288 H 0.0 **** 0.06
24555 H 237.46001268074446 148.14531646590913 47.5895637465359 H 0.0 **** 0.06
24556 C 8.004788841895746 182.69842770484917 63.78386742949496 C 0.0 **** -0.24
24557 H 7.329269315552111 182.1868777758175 63.09935110843955 H 0.0 **** 0.06
24558 H 7.489572596124077 182.89260509705014 64.72551489354137 H 0.0 **** 0.06
24559 H 8.321728724071974 183.64344769944643 63.34223421704081 H 0.0 **** 0.06
24560 H 8.877149556149888 182.07242021092256 63.96948791202243 H 0.0 **** 0.06
24561 C 150.45398839360246 73.84631384734314 135.6579459929167 C 0.0 **** -0.24
24562 H 150.11510347257317 73.76461210384983 134.62553987252025 H 0.0 **** 0.06
24563 H 150.5001246611167 72.85192408669857 136.1044188800865 H 0.0 **** 0.06
24564 H 149.75615501543197 74.46592765299562 136.22094588178223 H 0.0 **** 0.06
24565 H 151.4441437967102 74.30153851584362 135.68038141821873 H 0.0 **** 0.06
24566 C 61.93738883541198 230.3117214269814 57.68244484422962 C 0.0 **** -0.24
24567 H 62.39604627612658 229.88989682487903 58.57666960602873 H 0.0 **** 0.06
24568 H 62.296700064087304 231.33042689091388 57.53632096228168 H 0.0 **** 0.06
24569 H 60.85422802023419 230.3213536720261 57.800306749838796 H 0.0 **** 0.06
24570 H 62.20448235139796 229.70431356131536 56.81724641913141 H 0.0 **** 0.06
24571 C 18.11144383634084 105.29828667454325 111.10504958312328 C 0.0 **** -0.24
24572 H 18.617308083100767 104.39943354338405 110.75264926995587 H 0.0 **** 0.06
24573 H 17.5311324993271 105.06110273039957 111.99697732807209 H 0.0 **** 0.06
24574 H 17.446206595309974 105.67090314133316 110.32687676200803 H 0.0 **** 0.06
24575 H 18.852771638897906 106.06086336556325 111.34495467644226 H 0.0 **** 0.06
24576 C 221.52625934961154 18.5042543168789 31.256792103053158 C 0.0 **** -0.24
24577 H 222.05881976656326 19.22097792981961 31.88239440463002 H 0.0 **** 0.06
24578 H 221.0463538598389 17.756520352163335 31.88915135185684 H 0.0 **** 0.06
24579 H 222.2309694840735 18.014420130269542 30.585274672825406 H 0.0 **** 0.06
24580 H 220.7691868417018 19.02547428835922 30.671679704260015 H 0.0 **** 0.06
24581 C 83.17138902908442 197.17258716498083 161.97056592823466 C 0.0 **** -0.24
24582 H 84.04875463727677 197.4715168239577 162.54473247581177 H 0.0 **** 0.06
24583 H 82.46920869602965 196.65491741250818 162.6240537828534 H 0.0 **** 0.06
24584 H 83.47575370283946 196.50692357829578 161.16227717211493 H 0.0 **** 0.06
24585 H 82.69371378763952 198.0581915208552 161.55140980196975 H 0.0 **** 0.06
24586 C 47.16181250723116 142.81009291642476 165.80866514642574 C 0.0 **** -0.24
24587 H 47.39112266814145 142.22358637370655 164.91814198045446 H 0.0 **** 0.06
24588 H 46.23259636242139 143.35731039812225 165.65328515226915 H 0.0 **** 0.06
24589 H 47.97243155363151 143.51439389579753 165.99685777532315 H 0.0 **** 0.06
24590 H 47.05395478820142 142.1440253697951 166.66472256560579 H 0.0 **** 0.06
24591 C 37.6066799679524 188.5327286283263 5.942455184113811 C 0.0 **** -0.24
24592 H 37.498161430488054 189.59889332830343 6.144796829569117 H 0.0 **** 0.06
24593 H 37.73929372068828 188.37877434480617 4.871636694057116 H 0.0 **** 0.06
24594 H 36.71239236547355 188.00669215403076 6.276562772652824 H 0.0 **** 0.06
24595 H 38.47559712453514 188.14876355615687 6.475601837169137 H 0.0 **** 0.06
24596 C 190.03136508247815 222.614207283454 126.22517616923238 C 0.0 **** -0.24
24597 H 189.65977636233112 223.27370816650154 125.44081593393469 H 0.0 **** 0.06
24598 H 189.29805174165068 222.55812492183495 127.02913131319895 H 0.0 **** 0.06
24599 H 190.96973612494074 223.00776566566438 126.61522507679885 H 0.0 **** 0.06
24600 H 190.19682680851434 221.61811518380566 125.81377913190792 H 0.0 **** 0.06
24601 C 209.99882876125048 220.57582759079153 151.01643845587742 C 0.0 **** -0.24
24602 H 209.10878696622177 219.95497452509449 150.9108749700806 H 0.0 **** 0.06
24603 H 210.38668221432545 220.82445018494735 150.02884285611924 H 0.0 **** 0.06
24604 H 210.75645801368708 220.02989077399727 151.5788364282175 H 0.0 **** 0.06
24605 H 209.74099430071848 221.49193529975207 151.54737029793012 H 0.0 **** 0.06
24606 C 41.97189988665335 143.7486175697133 32.275600459367325 C 0.0 **** -0.24
24607 H 41.74664471654961 144.2615452471703 33.21116760554477 H 0.0 **** 0.06
24608 H 41.08357889115817 143.2213654800923 31.92768148527668 H 0.0 **** 0.06
24609 H 42.77845932667094 143.0343557054654 32.438242455421886 H 0.0 **** 0.06
24610 H 42.2789104515081 144.47907880118095 31.526528714088585 H 0.0 **** 0.06
24611 C 108.04069496718267 195.9593422753939 100.1269965967702 C 0.0 **** -0.24
24612 H 108.30299862782604 196.58428812133576 99.27324250465321 H 0.0 **** 0.06
24613 H 108.70217222898293 195.09341698438632 100.16154795195504 H 0.0 **** 0.06
24614 H 107.00789112111826 195.62329479433694 100.0268672302947 H 0.0 **** 0.06
24615 H 108.14688999804807 196.5355531518679 101.04574803403204 H 0.0 **** 0.06
24616 C 10.600796794105747 113.79051840205656 183.49708001698383 C 0.0 **** -0.24
24617 H 9.748637647837114 114.23433335250323 182.9813798542011 H 0.0 **** 0.06
24618 H 11.229092345087267 113.26736047607906 182.77572430654456 H 0.0 **** 0.06
24619 H 10.244037382624413 113.0857536117972 184.24757909971842 H 0.0 **** 0.06
24620 H 11.180729371376074 114.5755486098468 183.98172044201752 H 0.0 **** 0.06
24621 C 26.45332606537039 131.51440792664204 108.42579677686624 C 0.0 **** -0.24
24622 H 26.50053392136745 130.5687936481641 108.96616945085324 H 0.0 **** 0.06
24623 H 26.849526048759245 132.31149144655052 109.05396872224273 H 0.0 **** 0.06
24624 H 25.416688917046272 131.73368768108287 108.16812762715969 H 0.0 **** 0.06
24625 H 27.04599245977886 131.44084227604498 107.51405547175929 H 0.0 **** 0.06
24626 C 32.63238725192011 15.016843950918286 144.54161740171722 C 0.0 **** -0.24
24627 H 31.799020442202192 15.664420286280603 144.81482469158914 H 0.0 **** 0.06
24628 H 32.70823242129728 14.961214936813036 143.4558777975824 H 0.0 **** 0.06
24629 H 32.46351514832175 14.018282641227614 144.94615059445536 H 0.0 **** 0.06
24630 H 33.557376165997255 15.422982440466825 144.95128996357744 H 0.0 **** 0.06
24631 C 230.4649588225704 14.645829558566419 162.72267192958685 C 0.0 **** -0.24
24632 H 230.96418652542962 13.868098072543262 162.14585133973486 H 0.0 **** 0.06
24633 H 230.6970044596055 14.5186452603444 163.78069015180017 H 0.0 **** 0.06
24634 H 229.38744628260895 14.573858845211149 162.57539155149658 H 0.0 **** 0.06
24635 H 230.81224127980664 15.62457304968359 162.3894352913931 H 0.0 **** 0.06
24636 C 120.1093151503978 195.37966894348745 5.801199556402423 C 0.0 **** -0.24
24637 H 120.8791050617707 196.0176320292185 6.236293994682541 H 0.0 **** 0.06
24638 H 120.50616859894015 194.88632104490625 4.913406354278592 H 0.0 **** 0.06
24639 H 119.24752029581916 195.9866555690901 5.526204245895471 H 0.0 **** 0.06
24640 H 119.8073155842383 194.6275821247876 6.529698865150209 H 0.0 **** 0.06
24641 C 15.861999479904554 216.07823823191166 152.20617135129962 C 0.0 **** -0.24
24642 H 15.048656678685617 216.79998973120087 152.12837781726597 H 0.0 **** 0.06
24643 H 16.116130126008116 215.92916871606792 153.25537650695952 H 0.0 **** 0.06
24644 H 16.73417954861077 216.45507492496446 151.67133155289974 H 0.0 **** 0.06
24645 H 15.549661349267964 215.12928607362437 151.7690680769608 H 0.0 **** 0.06
24646 C 111.47578910173911 123.55042339739359 180.55479025712873 C 0.0 **** -0.24
24647 H 112.48631640701197 123.51816068084756 180.1476315039086 H 0.0 **** 0.06
24648 H 111.1197903986779 122.53348443588274 180.72294985840568 H 0.0 **** 0.06
24649 H 110.81594638022307 124.05450288746627 179.84965693217384 H 0.0 **** 0.06
24650 H 111.48096822621852 124.09365880713895 181.49957225941085 H 0.0 **** 0.06
24651 C 90.56010746383765 105.30525220866838 190.85455246678504 C 0.0 **** -0.24
24652 H 90.9413044076469 105.06783523646993 191.84846979457777 H 0.0 **** 0.06
24653 H 91.10312534444401 104.72223059829588 190.10929145705455 H 0.0 **** 0.06
24654 H 90.69923851568282 106.36749537684148 190.65675570529308 H 0.0 **** 0.06
24655 H 89.49915644816761 105.06110787967839 190.80458193241924 H 0.0 **** 0.06
24656 C 148.59937971692554 144.31203623701833 142.44182000264422 C 0.0 **** -0.24
24657 H 148.94745593652885 143.31745587877742 142.16192818231247 H 0.0 **** 0.06
24658 H 149.41864815296194 144.86775205781024 142.89800935538378 H 0.0 **** 0.06
24659 H 147.7792998709021 144.22251382043558 143.15458038082608 H 0.0 **** 0.06
24660 H 148.251697305673 144.8380452165759 141.5531754982691 H 0.0 **** 0.06
24661 C 92.37562100732859 139.00171727242403 163.33352096552736 C 0.0 **** -0.24
24662 H 91.43589308620881 139.4976473947123 163.0878701369851 H 0.0 **** 0.06
24663 H 92.16676706303704 138.0773714763654 163.87366489519172 H 0.0 **** 0.06
24664 H 92.97939590743391 139.65914410911404 163.95813715307125 H 0.0 **** 0.06
24665 H 92.91613564838372 138.7735427280488 162.4157814310093 H 0.0 **** 0.06
24666 C 169.6027621727478 227.82003246383766 71.23568702693214 C 0.0 **** -0.24
24667 H 169.4239572761846 226.74868817912247 71.14946178302009 H 0.0 **** 0.06
24668 H 168.64830979049813 228.34490337868058 71.27826335329766 H 0.0 **** 0.06
24669 H 170.16929479782968 228.16488290913344 70.36986745104034 H 0.0 **** 0.06
24670 H 170.16999195890057 228.02226176686085 72.1445413899664 H 0.0 **** 0.06
24671 C 5.834309759422567 104.48555999126111 54.92652545920154 C 0.0 **** -0.24
24672 H 4.814796160158934 104.14076982202212 54.751967916958705 H 0.0 **** 0.06
24673 H 5.832761714250594 105.56591125840404 55.067565531441545 H 0.0 **** 0.06
24674 H 6.455228606762262 104.23117647564752 54.06732211612936 H 0.0 **** 0.06
24675 H 6.232894975036544 104.0025112663175 55.81951613061662 H 0.0 **** 0.06
24676 C 28.025579562217672 129.16720310367768 101.51633364301131 C 0.0 **** -0.24
24677 H 27.441460423625756 128.51904034525663 100.86242887367513 H 0.0 **** 0.06
24678 H 28.346930980889994 130.04866365811532 100.96095527522183 H 0.0 **** 0.06
24679 H 28.90004948801223 128.62566295476418 101.87701519865536 H 0.0 **** 0.06
24680 H 27.41290744531247 129.47408432592013 102.36448066410316 H 0.0 **** 0.06
24681 C 123.727339016907 69.18080747942508 87.034204508177 C 0.0 **** -0.24
24682 H 122.72767701083399 69.29869274138605 86.61826402033967 H 0.0 **** 0.06
24683 H 123.899266661517 68.13167809922564 87.2743336310258 H 0.0 **** 0.06
24684 H 123.8174250860643 69.78095139460115 87.93934446699859 H 0.0 **** 0.06
24685 H 124.46602001163467 69.51248480855304 86.30410101390723 H 0.0 **** 0.06
24686 C 63.438214677692514 90.48655838127601 23.358041798831863 C 0.0 **** -0.24
24687 H 63.66687104360764 89.42114838858501 23.36056685358173 H 0.0 **** 0.06
24688 H 62.657553609177256 90.68871490303539 22.624136073418327 H 0.0 **** 0.06
24689 H 64.33427640170737 91.04991849777011 23.099601621773303 H 0.0 **** 0.06
24690 H 63.09322308538265 90.78671238438446 24.347620470481928 H 0.0 **** 0.06
24691 C 154.40674518257205 220.18843971757255 72.65581379637783 C 0.0 **** -0.24
24692 H 155.03455663921414 220.8832409333299 73.21390394774869 H 0.0 **** 0.06
24693 H 154.9797502940572 219.29242145988235 72.41613484802582 H 0.0 **** 0.06
24694 H 154.0722621924927 220.6635351470936 71.73338491845647 H 0.0 **** 0.06
24695 H 153.54078774109738 219.91673217984754 73.25876096178706 H 0.0 **** 0.06
24696 C 72.44332389869368 136.27270957117528 21.646095199592423 C 0.0 **** -0.24
24697 H 71.47533149620892 135.84440193470243 21.904050303369104 H 0.0 **** 0.06
24698 H 72.59777360581279 137.18904889911332 22.216362767740762 H 0.0 **** 0.06
24699 H 72.46777835287656 136.49892114218736 20.580049292962414 H 0.0 **** 0.06
24700 H 73.23186464471041 135.55899137507598 21.88326684847833 H 0.0 **** 0.06
24701 C 99.08719809123787 29.92641727890404 127.93359937109034 C 0.0 **** -0.24
24702 H 98.88219368102759 30.976997764230163 128.1427008249622 H 0.0 **** 0.06
24703 H 98.67180878552793 29.309948070386127 128.73093494090162 H 0.0 **** 0.06
24704 H 100.16461329332955 29.77144806140886 127.87689317639342 H 0.0 **** 0.06
24705 H 98.62882543702963 29.650132716418412 126.98396421964927 H 0.0 **** 0.06
24706 C 125.79328598585346 75.08139402291894 212.39353445345688 C 0.0 **** -0.24
24707 H 126.05472379882659 75.04628478154908 213.45154304915226 H 0.0 **** 0.06
24708 H 125.38307472041174 74.11881552729642 212.08809881914388 H 0.0 **** 0.06
24709 H 126.68614661123428 75.29880141072422 211.8065587220774 H 0.0 **** 0.06
24710 H 125.05123792535252 75.86213173620692 212.22921507206695 H 0.0 **** 0.06
24711 C 99.7021455323885 233.46114024183015 129.52005226952127 C 0.0 **** -0.24
24712 H 100.74682503853973 233.5521307297246 129.2224434144843 H 0.0 **** 0.06
24713 H 99.5411533649677 234.00724574579834 130.44880834962316 H 0.0 **** 0.06
24714 H 99.45752910949554 232.40984811032385 129.66816782612847 H 0.0 **** 0.06
24715 H 99.06483515323737 233.87594724942264 128.73866171229105 H 0.0 **** 0.06
24716 C 45.559060999381785 241.21034077759958 233.72311664555497 C 0.0 **** -0.24
24717 H 46.04904587269678 240.90344096897584 234.6471885589969 H 0.0 **** 0.06
24718 H 44.981531045219725 242.1179776332087 233.9016889571051 H 0.0 **** 0.06
24719 H 44.89372821444644 240.41673009331873 233.38447977962565 H 0.0 **** 0.06
24720 H 46.31254667861387 241.40379825980511 232.95964752219245 H 0.0 **** 0.06
24721 C 146.35937458673973 39.24571907003934 210.1836497418207 C 0.0 **** -0.24
24722 H 145.96310352412735 39.379362776134386 211.19097897718848 H 0.0 **** 0.06
24723 H 146.006700764129 40.05627313208498 209.54503258955373 H 0.0 **** 0.06
24724 H 146.0171964853303 38.29173212236023 209.78231245094315 H 0.0 **** 0.06
24725 H 147.44826576212904 39.257345526563554 210.2170771462619 H 0.0 **** 0.06
24726 C 156.15882881744585 61.56125984279444 120.62907566347906 C 0.0 **** -0.24
24727 H 155.24047395264967 61.01528077037878 120.84517694641323 H 0.0 **** 0.06
24728 H 156.5830222498499 61.202974346505556 119.69083901480326 H 0.0 **** 0.06
24729 H 156.87451282714528 61.40272878216902 121.43600928762854 H 0.0 **** 0.06
24730 H 155.93729472705073 62.62574884017417 120.54534155310941 H 0.0 **** 0.06
24731 C 121.40445046880544 209.96311364511823 79.28810221438249 C 0.0 **** -0.24
24732 H 122.4452222832023 210.22375097498988 79.09451299290086 H 0.0 **** 0.06
24733 H 121.07989528772285 209.20815630039797 78.57136242896499 H 0.0 **** 0.06
24734 H 120.78291071036966 210.85258917223308 79.1864401192484 H 0.0 **** 0.06
24735 H 121.31198262333587 209.56785724104606 80.29976156560397 H 0.0 **** 0.06
24736 C 56.1156555014166 29.524782700546055 24.41950775784838 C 0.0 **** -0.24
24737 H 55.69331306526479 29.140471104349828 23.490930870961733 H 0.0 **** 0.06
24738 H 56.35919405222728 28.692914781808653 25.07942691691099 H 0.0 **** 0.06
24739 H 55.38916632686312 30.175302360200135 24.906886691112135 H 0.0 **** 0.06
24740 H 57.019734311487355 30.091910841583882 24.199247139298933 H 0.0 **** 0.06
24741 C 198.75928685458715 70.31442761246566 160.4045609534643 C 0.0 **** -0.24
24742 H 198.7078838859289 69.44474486770511 161.05958097356933 H 0.0 **** 0.06
24743 H 199.24368058220773 71.13672465961665 160.93148680728834 H 0.0 **** 0.06
24744 H 197.75148716523137 70.61179533318906 160.11483212652647 H 0.0 **** 0.06
24745 H 199.33476773086423 70.06429440044823 159.51357907857437 H 0.0 **** 0.06
24746 C 23.72209506266904 65.54855035030226 226.70625686447025 C 0.0 **** -0.24
24747 H 24.528935371993356 64.84486424991499 226.50247474446832 H 0.0 **** 0.06
24748 H 23.09328422105314 65.64500806734813 225.82061957264546 H 0.0 **** 0.06
24749 H 24.14342144588157 66.5210986547439 226.9608927700165 H 0.0 **** 0.06
24750 H 23.123536258700298 65.18272725873572 227.53998606760996 H 0.0 **** 0.06
24751 C 230.76699345396395 201.53675002786667 191.70762953876257 C 0.0 **** -0.24
24752 H 230.93944601898 202.35330673936258 192.4100808443353 H 0.0 **** 0.06
24753 H 229.6954069753586 201.36056644014923 191.61157572134076 H 0.0 **** 0.06
24754 H 231.25395634755958 200.63317622816612 192.0749537848086 H 0.0 **** 0.06
24755 H 231.1806312646338 201.80289547227875 190.73432848349938 H 0.0 **** 0.06
24756 C 174.24721420701422 233.78491823261112 128.6600830461127 C 0.0 **** -0.24
24757 H 173.62319279304307 233.63534868585913 127.77855040227539 H 0.0 **** 0.06
24758 H 175.25677626439398 233.43273881409527 128.45353121926993 H 0.0 **** 0.06
24759 H 173.8308221203505 233.22632714949413 129.4989693382573 H 0.0 **** 0.06
24760 H 174.2753930547579 234.84588961890643 128.90807344432395 H 0.0 **** 0.06
24761 C 166.71287882513656 80.59901643179782 41.81446643221702 C 0.0 **** -0.24
24762 H 165.93658634478177 80.57717201641356 41.05088385210313 H 0.0 **** 0.06
24763 H 167.49631370373635 79.8859164715019 41.5560562621919 H 0.0 **** 0.06
24764 H 166.28164218784244 80.33131389197504 42.77950471639268 H 0.0 **** 0.06
24765 H 167.13782055756784 81.60110336947915 41.87240486935964 H 0.0 **** 0.06
24766 C 193.65618712365966 54.351787103471 153.04102056138652 C 0.0 **** -0.24
24767 H 193.33179532489783 55.3264401551541 152.67624260132334 H 0.0 **** 0.06
24768 H 193.5628069470257 53.61610636372686 152.24335487798905 H 0.0 **** 0.06
24769 H 193.03310317025827 54.05526527844526 153.88492918539038 H 0.0 **** 0.06
24770 H 194.69668050668457 54.41211889950654 153.3606174423188 H 0.0 **** 0.06
24771 C 37.33123111778127 209.26344821139267 163.3308787069792 C 0.0 **** -0.24
24772 H 37.70205855346332 210.2716650936583 163.51453135958323 H 0.0 **** 0.06
24773 H 38.1745626781547 208.58791416959758 163.18310787342293 H 0.0 **** 0.06
24774 H 36.705183989159465 209.2642558395041 162.4381245875578 H 0.0 **** 0.06
24775 H 36.74426767012211 208.93123528472876 164.18631955097675 H 0.0 **** 0.06
24776 C 4.781280099842064 206.54547686994476 173.67203313617696 C 0.0 **** -0.24
24777 H 5.1550204457369375 207.5690547445124 173.6344556902172 H 0.0 **** 0.06
24778 H 5.591560600283174 205.85427348549894 173.44284991534707 H 0.0 **** 0.06
24779 H 3.9809584574635153 206.42442768950912 172.94159769100605 H 0.0 **** 0.06
24780 H 4.396016947401023 206.33583798485807 174.67007191986278 H 0.0 **** 0.06
24781 C 16.133003582144212 6.733521561675786 105.3007152362799 C 0.0 **** -0.24
24782 H 15.420803762039412 5.927610565787489 105.47691809877216 H 0.0 **** 0.06
24783 H 15.6722481486824 7.687234237842361 105.55948373888162 H 0.0 **** 0.06
24784 H 16.419901410664224 6.741746086687513 104.24899542281713 H 0.0 **** 0.06
24785 H 17.017733731934754 6.578493983372667 105.91795471799603 H 0.0 **** 0.06
24786 C 211.3636068123295 227.11432751748274 166.4139302884479 C 0.0 **** -0.24
24787 H 212.0469496129681 226.30065131626606 166.16977822385985 H 0.0 **** 0.06
24788 H 211.55733375436097 227.96140377549227 165.75527919586173 H 0.0 **** 0.06
24789 H 211.5158505380222 227.41712729393385 167.4503562248249 H 0.0 **** 0.06
24790 H 210.33523827361788 226.77767310539025 166.28168609375004 H 0.0 **** 0.06
24791 C 42.711254572911926 184.47016794190296 139.01298415153138 C 0.0 **** -0.24
24792 H 42.77667015040282 184.92435305381744 140.00128534428606 H 0.0 **** 0.06
24793 H 41.92514519580274 184.96029421192458 138.43856805136707 H 0.0 **** 0.06
24794 H 42.47794099310312 183.40959377711908 139.11564767952325 H 0.0 **** 0.06
24795 H 43.66437174081264 184.58375506004006 138.49665557570464 H 0.0 **** 0.06
24796 C 114.2473048672224 10.310002599682974 43.958482927988086 C 0.0 **** -0.24
24797 H 114.0924570366169 10.802135761223838 42.99760328778052 H 0.0 **** 0.06
24798 H 113.42251695321804 9.624526622846773 44.152537426244464 H 0.0 **** 0.06
24799 H 114.28867604931736 11.060953738327939 44.74793931645391 H 0.0 **** 0.06
24800 H 115.18476776929288 9.755189355590204 43.935113467332584 H 0.0 **** 0.06
24801 C 158.91636873491325 226.18187303212625 36.55186964130226 C 0.0 **** -0.24
24802 H 159.19805152388315 225.94422300321952 35.526131937096224 H 0.0 **** 0.06
24803 H 158.40223707172532 227.1431253284341 36.57315887575727 H 0.0 **** 0.06
24804 H 159.81153724091075 226.23472874620614 37.17199236622328 H 0.0 **** 0.06
24805 H 158.2532105248886 225.4067488618138 36.93602622241187 H 0.0 **** 0.06
24806 C 98.71049477603512 2.089484501258653 234.2546582702055 C 0.0 **** -0.24
24807 H 97.8815788362038 1.3854201838313145 234.17783134397746 H 0.0 **** 0.06
24808 H 98.79343332114749 2.654824260891999 233.32601531923015 H 0.0 **** 0.06
24809 H 99.63700990854235 1.5428719157579138 234.43047055614 H 0.0 **** 0.06
24810 H 98.52962338164684 2.7755679853855924 235.082234588469 H 0.0 **** 0.06
24811 C 187.40631034922194 184.35013832038032 112.41710081034094 C 0.0 **** -0.24
24812 H 186.9939818469221 184.00950295070118 111.46749756837124 H 0.0 **** 0.06
24813 H 187.0197967990319 183.72864537753043 113.22478538093006 H 0.0 **** 0.06
24814 H 187.11682114236504 185.38778707546288 112.58657541116332 H 0.0 **** 0.06
24815 H 188.49381023601075 184.2761987744132 112.38786868160392 H 0.0 **** 0.06
24816 C 103.86474048226765 205.39299440989956 131.54306566377227 C 0.0 **** -0.24
24817 H 103.14623445978808 206.05250051472152 131.0563713427603 H 0.0 **** 0.06
24818 H 104.80613695945513 205.41296472707126 130.99393323083257 H 0.0 **** 0.06
24819 H 103.47244892701374 204.37563156605754 131.55509720845 H 0.0 **** 0.06
24820 H 104.03204811318827 205.7304594078933 132.56619767205783 H 0.0 **** 0.06
24821 C 192.26802246225458 208.02074832099797 209.62830765086454 C 0.0 **** -0.24
24822 H 191.82034933425757 208.7208451036669 210.33414675489456 H 0.0 **** 0.06
24823 H 193.16389392140167 207.5841747142798 210.0688861067143 H 0.0 **** 0.06
24824 H 192.5332337085939 208.54929722211594 208.71233787580195 H 0.0 **** 0.06
24825 H 191.552666409732 207.23091632758496 209.39829957936075 H 0.0 **** 0.06
24826 C 162.3676102469082 170.1881039252505 159.0923698232515 C 0.0 **** -0.24
24827 H 162.33852924807826 169.9679593215431 160.15988386331892 H 0.0 **** 0.06
24828 H 162.7006601084925 171.21527393509066 158.94251278106069 H 0.0 **** 0.06
24829 H 161.3706849788855 170.0639363059917 158.6700725623229 H 0.0 **** 0.06
24830 H 163.05867817022857 169.5053006289803 158.59954598142764 H 0.0 **** 0.06
24831 C 30.09544929579738 51.68054517173556 45.79703539124246 C 0.0 **** -0.24
24832 H 30.353444467469586 52.734707389556334 45.89387582780708 H 0.0 **** 0.06
24833 H 30.709099949090287 51.22641524519558 45.018495435555195 H 0.0 **** 0.06
24834 H 29.042343575402683 51.58788305092088 45.52963933296017 H 0.0 **** 0.06
24835 H 30.276168959681456 51.172971030778854 46.74494333538192 H 0.0 **** 0.06
24836 C 248.62981319447545 213.8751282058181 132.9537832749435 C 0.0 **** -0.24
24837 H 247.86992904599188 213.89883698219964 133.73556684746782 H 0.0 **** 0.06
24838 H 248.74050894306555 214.8714522539434 132.52440416168176 H 0.0 **** 0.06
24839 H 248.32794690503457 213.174735941039 132.17585977261666 H 0.0 **** 0.06
24840 H 249.58012751382142 213.55548354513218 133.38141226685784 H 0.0 **** 0.06
24841 C 136.47279594436142 214.71961690440537 145.53489056838777 C 0.0 **** -0.24
24842 H 136.6772270809082 213.86052720891843 146.17386503947301 H 0.0 **** 0.06
24843 H 136.04854503420697 214.37726780241604 144.59045166781382 H 0.0 **** 0.06
24844 H 137.40146185114583 215.2576388444187 145.3425871566832 H 0.0 **** 0.06
24845 H 135.76560978469064 215.3825626760309 146.03250809223115 H 0.0 **** 0.06
24846 C 0.19342097172551576 108.57579486046575 101.2074601727181 C 0.0 **** -0.24
24847 H 0.1643091504877674 109.41848076619988 100.51621597430074 H 0.0 **** 0.06
24848 H 1.0680819788540106 108.66601335938986 101.852256514369 H 0.0 **** 0.06
24849 H 0.25129285792397127 107.6452508891092 100.64355209249032 H 0.0 **** 0.06
24850 H -0.7099866431382367 108.57659667817333 101.81782532021879 H 0.0 **** 0.06
24851 C 25.22915101659055 27.23063607852481 154.67739479194114 C 0.0 **** -0.24
24852 H 24.93447674811371 26.21481504742286 154.93976146675791 H 0.0 **** 0.06
24853 H 24.451328182079394 27.927602304579878 154.9926967221423 H 0.0 **** 0.06
24854 H 25.366637724191534 27.302743533376187 153.5987143550788 H 0.0 **** 0.06
24855 H 26.164828358029567 27.478900721785706 155.17990764124218 H 0.0 **** 0.06
24856 C 146.79912908855178 243.27371690182787 182.59166346217256 C 0.0 **** -0.24
24857 H 146.77189401151705 242.5381656417378 183.39517709409432 H 0.0 **** 0.06
24858 H 147.81577844690779 243.65170141650697 182.47866183064338 H 0.0 **** 0.06
24859 H 146.1294315966165 244.0997168795684 182.832540779164 H 0.0 **** 0.06
24860 H 146.4782137160456 242.80627487217163 181.66103634225425 H 0.0 **** 0.06
24861 C 169.98073493373167 226.22539582298182 50.83724316396075 C 0.0 **** -0.24
24862 H 170.35980740772166 225.8494556926888 49.88660671761258 H 0.0 **** 0.06
24863 H 170.7498963451381 226.11597291419304 51.60303878814133 H 0.0 **** 0.06
24864 H 169.09760421657808 225.65619359299103 51.125987893577616 H 0.0 **** 0.06
24865 H 169.71829859612524 227.2774426971347 50.73260044820765 H 0.0 **** 0.06
24866 C 157.5574601151272 235.7338539771131 23.1475931170406 C 0.0 **** -0.24
24867 H 157.57717748504922 236.02984138188066 24.19682248098431 H 0.0 **** 0.06
24868 H 158.21944723945765 234.8813749159255 22.999235254555202 H 0.0 **** 0.06
24869 H 157.893792804081 236.56706597670654 22.530531000741547 H 0.0 **** 0.06
24870 H 156.54139901114422 235.45969129673736 22.866343739196708 H 0.0 **** 0.06
24871 C 238.83042791468935 242.91322581219515 86.66531594197102 C 0.0 **** -0.24
24872 H 238.50710616640558 243.80982042227117 87.19249494774292 H 0.0 **** 0.06
24873 H 239.65217765458112 243.1629341873306 85.99422231186622 H 0.0 **** 0.06
24874 H 237.99771270932166 242.51265742469397 86.08607943136303 H 0.0 **** 0.06
24875 H 239.16343151866675 242.16771934968398 87.38695038999367 H 0.0 **** 0.06
24876 C 3.8319171548709647 175.14456109824212 42.46313345512026 C 0.0 **** -0.24
24877 H 4.699336061753357 175.06418016275225 43.11839593355069 H 0.0 **** 0.06
24878 H 3.296703841685286 174.19556810237688 42.449959101467286 H 0.0 **** 0.06
24879 H 4.161613120156417 175.39113333855593 41.453662170737886 H 0.0 **** 0.06
24880 H 3.1714146475849105 175.92979313090098 42.83088562945915 H 0.0 **** 0.06
24881 C 59.439368093262345 72.30223592201398 12.84987855948333 C 0.0 **** -0.24
24882 H 58.86097384627439 71.45841809155681 12.472125803792153 H 0.0 **** 0.06
24883 H 58.89389852886217 72.77953793692936 13.664936425663598 H 0.0 **** 0.06
24884 H 59.59787544633838 73.02179952737148 12.046751418838511 H 0.0 **** 0.06
24885 H 60.402292850908225 71.94636718959907 13.216060104655156 H 0.0 **** 0.06
24886 C 163.48908102026869 201.39005823901584 47.179296213478125 C 0.0 **** -0.24
24887 H 163.3631263004077 200.31561984194218 47.04412553291539 H 0.0 **** 0.06
24888 H 162.6467320860251 201.914184638228 46.72786808060894 H 0.0 **** 0.06
24889 H 164.41549801248476 201.71018281321463 46.70227065407491 H 0.0 **** 0.06
24890 H 163.5314865412701 201.61937985863835 48.24391113568598 H 0.0 **** 0.06
24891 C 28.20821666552152 198.68884310258449 233.32239173891458 C 0.0 **** -0.24
24892 H 28.49886079399434 199.04235091084593 232.3329232993448 H 0.0 **** 0.06
24893 H 29.061583032722268 198.20950202511372 233.80181174405737 H 0.0 **** 0.06
24894 H 27.393944416982123 197.97025534130927 233.22623608893377 H 0.0 **** 0.06
24895 H 27.87794071788346 199.53344941750117 233.92695979854886 H 0.0 **** 0.06
24896 C 65.58928671976952 150.47318294723547 129.18828873194386 C 0.0 **** -0.24
24897 H 64.73425024206574 150.49158773097813 129.86223563691055 H 0.0 **** 0.06
24898 H 65.54428656434186 149.57664866065082 128.5693332926325 H 0.0 **** 0.06
24899 H 66.51089019252814 150.4672896166969 129.76934369156 H 0.0 **** 0.06
24900 H 65.56776992912788 151.35653215705267 128.54988778234278 H 0.0 **** 0.06
24901 C 13.661839275223514 112.40969455244792 234.16264940126177 C 0.0 **** -0.24
24902 H 13.503734095831334 111.44569790843244 233.68084780802914 H 0.0 **** 0.06
24903 H 14.306627512501024 113.02677027111625 233.53715659365488 H 0.0 **** 0.06
24904 H 14.133187417840787 112.25825690959769 235.13377665280495 H 0.0 **** 0.06
24905 H 12.702170078572266 112.90889874979962 234.30008222375386 H 0.0 **** 0.06
24906 C 224.73929271583756 238.7642466898281 93.97054655227473 C 0.0 **** -0.24
24907 H 224.96003215688958 238.7700478044644 95.03764823865879 H 0.0 **** 0.06
24908 H 223.7351471942104 239.15755220665454 93.80609555725061 H 0.0 **** 0.06
24909 H 224.79691808588365 237.7440443988246 93.59288644299122 H 0.0 **** 0.06
24910 H 225.4639560106409 239.38820866574656 93.44628789225223 H 0.0 **** 0.06
24911 C 248.88914288254895 115.69838259091631 137.02827148287525 C 0.0 **** -0.24
24912 H 248.43029363069257 116.51436655471406 136.46963554838916 H 0.0 **** 0.06
24913 H 248.18353581510928 115.32461433875201 137.77017547138203 H 0.0 **** 0.06
24914 H 249.7866534771556 116.06041258738622 137.5298744974135 H 0.0 **** 0.06
24915 H 249.15587856999917 114.89352351643868 136.3421435589053 H 0.0 **** 0.06
24916 C 191.8721006362644 31.743590426233183 114.02103261433916 C 0.0 **** -0.24
24917 H 192.49002337913078 30.912946550292858 113.67996545895889 H 0.0 **** 0.06
24918 H 191.07928263164348 31.927544334277613 113.2961559780658 H 0.0 **** 0.06
24919 H 192.48811794449597 32.63702679606982 114.1200058037073 H 0.0 **** 0.06
24920 H 191.43272097921607 31.49596874012336 114.98690868229909 H 0.0 **** 0.06
24921 C 180.33792074712005 59.04906734546117 132.64237596812757 C 0.0 **** -0.24
24922 H 179.47587005174398 58.68335206167015 133.20022137551683 H 0.0 **** 0.06
24923 H 180.64129214112293 60.0193141752689 133.03851038640818 H 0.0 **** 0.06
24924 H 180.07204415764647 59.15291223334728 131.59033488097324 H 0.0 **** 0.06
24925 H 181.1609509162999 58.34221532577058 132.74102746972622 H 0.0 **** 0.06
24926 C 130.05500677007677 217.21427026282862 35.30486316187272 C 0.0 **** -0.24
24927 H 129.6514251416958 217.13124360853902 36.31385375169259 H 0.0 **** 0.06
24928 H 130.00441739538002 216.24290036610142 34.81244787706194 H 0.0 **** 0.06
24929 H 131.0934987575002 217.54209584350903 35.35511605481044 H 0.0 **** 0.06
24930 H 129.47110660180633 217.93973255122154 34.73929740893114 H 0.0 **** 0.06
24931 C 237.08168016956606 45.53841982887795 201.7215877531404 C 0.0 **** -0.24
24932 H 237.4721684586499 46.328390351286785 202.36122438059056 H 0.0 **** 0.06
24933 H 236.89799761611687 44.64414172293647 202.31896031653955 H 0.0 **** 0.06
24934 H 237.80688140401182 45.31134027846831 200.93988408762368 H 0.0 **** 0.06
24935 H 236.14744172097372 45.8678236979798 201.26598684354738 H 0.0 **** 0.06
24936 C 188.871154824778 218.36733894045773 209.58722528160314 C 0.0 **** -0.24
24937 H 188.28260594506025 218.23826960798436 208.6797431177271 H 0.0 **** 0.06
24938 H 188.3298617189986 217.9466213298282 210.43473400512806 H 0.0 **** 0.06
24939 H 189.0457636744773 219.42986060758736 209.7586138240248 H 0.0 **** 0.06
24940 H 189.82779108195845 217.8554175861839 209.4752021423275 H 0.0 **** 0.06
24941 C 6.25044576068764 145.22902037318724 218.50357292398326 C 0.0 **** -0.24
24942 H 5.550276452637576 145.26645413986805 219.33831074232845 H 0.0 **** 0.06
24943 H 6.758084043784947 144.2638802860907 218.49861654277666 H 0.0 **** 0.06
24944 H 6.985463043374779 146.0260718371629 218.61039574823462 H 0.0 **** 0.06
24945 H 5.707134490094376 145.35919345848757 217.56801138490854 H 0.0 **** 0.06
24946 C 41.90778540451748 217.88678121238416 3.8962448695360195 C 0.0 **** -0.24
24947 H 41.313863299158925 218.55469028082592 4.519413842756052 H 0.0 **** 0.06
24948 H 42.96771261407116 218.10073037830938 4.0418390192934055 H 0.0 **** 0.06
24949 H 41.6469911884073 218.03891018525732 2.8494250614209307 H 0.0 **** 0.06
24950 H 41.70452632854972 216.85304110602613 4.17466129008065 H 0.0 **** 0.06
24951 C 42.69032506439885 135.90180002901255 15.686497426813133 C 0.0 **** -0.24
24952 H 43.63159743549828 136.15031848769786 15.194348581144908 H 0.0 **** 0.06
24953 H 42.88606919056541 135.23518854853302 16.525800667970287 H 0.0 **** 0.06
24954 H 42.0287514669149 135.4076221501823 14.974722060378923 H 0.0 **** 0.06
24955 H 42.21864821960963 136.81549206361024 16.04871061407883 H 0.0 **** 0.06
24956 C 79.75753479733399 224.81009080438548 187.43687293432427 C 0.0 **** -0.24
24957 H 80.11152615910748 225.11500585272958 188.42101798750087 H 0.0 **** 0.06
24958 H 78.92709051433468 224.112508298638 187.54975126841293 H 0.0 **** 0.06
24959 H 80.5678146677775 224.32464643138113 186.89357940936173 H 0.0 **** 0.06
24960 H 79.42247006620173 225.68760303727504 186.8828138331667 H 0.0 **** 0.06
24961 C 83.27322869462827 117.65324290584226 99.86141299610756 C 0.0 **** -0.24
24962 H 83.82852606037207 118.17445988819748 100.64120480287883 H 0.0 **** 0.06
24963 H 83.28084193142692 118.25140383552491 98.94959770715582 H 0.0 **** 0.06
24964 H 82.2441017798927 117.50118212311793 100.18738367648933 H 0.0 **** 0.06
24965 H 83.73955302109667 116.68727735049788 99.66638801781059 H 0.0 **** 0.06
24966 C 79.76451480900991 88.50705076515573 118.34702760078193 C 0.0 **** -0.24
24967 H 80.11486627512485 87.86827794748376 117.53607463682266 H 0.0 **** 0.06
24968 H 79.44985781999665 87.8880373938255 119.18600255547224 H 0.0 **** 0.06
24969 H 78.92204874667561 89.10461754910827 117.99901260096851 H 0.0 **** 0.06
24970 H 80.57139579658266 89.16734182131987 118.66328122039926 H 0.0 **** 0.06
24971 C 114.11617020225881 218.95670885482807 238.86013648127496 C 0.0 **** -0.24
24972 H 114.87766450487291 218.88396683327224 238.08390868580068 H 0.0 **** 0.06
24973 H 114.57818034235012 218.81178923818374 239.8379225150079 H 0.0 **** 0.06
24974 H 113.35835953117689 218.18929897638387 238.69952937386284 H 0.0 **** 0.06
24975 H 113.65015235198788 219.9412682467701 238.82080791954303 H 0.0 **** 0.06
24976 C 243.66014649766993 26.503517256276297 1.4116314528891962 C 0.0 **** -0.24
24977 H 243.63828023375132 25.910172885084847 0.4973006063368359 H 0.0 **** 0.06
24978 H 244.5961349510145 27.06199638414708 1.4599146739265905 H 0.0 **** 0.06
24979 H 243.58745143808392 25.84165138975746 2.2754957864543996 H 0.0 **** 0.06
24980 H 242.82152517608037 27.19820424642367 1.415210864844795 H 0.0 **** 0.06
24981 C 69.61477569567165 153.12099507317993 76.03947553143354 C 0.0 **** -0.24
24982 H 68.86266244089973 153.7340447231531 76.53725797316469 H 0.0 **** 0.06
24983 H 69.15663914424252 152.59414995088483 75.20139814645088 H 0.0 **** 0.06
24984 H 70.01834738031795 152.39711426591228 76.74705099437978 H 0.0 **** 0.06
24985 H 70.41839236737081 153.75841179402732 75.67294351118153 H 0.0 **** 0.06
24986 C 162.7413191231546 49.92271028102439 102.31330159193709 C 0.0 **** -0.24
24987 H 162.82892747293 48.90129316877184 101.94243175911993 H 0.0 **** 0.06
24988 H 163.4216477367863 50.063680364128885 103.15264477179272 H 0.0 **** 0.06
24989 H 161.71696219554238 50.10294096235137 102.6402516815566 H 0.0 **** 0.06
24990 H 162.99640164436875 50.62178104178619 101.51650014032145 H 0.0 **** 0.06
24991 C 145.2883238663874 171.02388605763161 2.5069345002738004 C 0.0 **** -0.24
24992 H 144.68976834230577 171.8307585841242 2.929172081155869 H 0.0 **** 0.06
24993 H 144.63108570078467 170.29609987044338 2.03020833541936 H 0.0 **** 0.06
24994 H 145.85407491608308 170.53781919354498 3.3017774549111465 H 0.0 **** 0.06
24995 H 145.97713815878865 171.4313414054066 1.7670956146277348 H 0.0 **** 0.06
24996 C 9.43065783037062 69.85253622146766 211.28101132045714 C 0.0 **** -0.24
24997 H 8.985017028596971 70.11237782268776 212.24056286933376 H 0.0 **** 0.06
24998 H 8.651412114590656 69.80122706927904 210.52024522010336 H 0.0 **** 0.06
24999 H 9.92531255066919 68.88384290201444 211.36085205229006 H 0.0 **** 0.06
25000 H 10.161859843061507 70.61126968069044 211.00223950875264 H 0.0 **** 0.06
25001 C 54.22874057566858 30.84840637589258 86.08637204873256 C 0.0 **** -0.24
25002 H 54.348929890251156 30.241344026993232 86.98422917107771 H 0.0 **** 0.06
25003 H 55.11586698926419 31.466556309971963 85.94543602510626 H 0.0 **** 0.06
25004 H 53.352982116656875 31.4870958175984 86.19381259600357 H 0.0 **** 0.06
25005 H 54.09926058338675 30.195965577754635 85.22277810080234 H 0.0 **** 0.06
25006 C 56.423526177480625 122.53710790166087 48.21969200180331 C 0.0 **** -0.24
25007 H 56.980047495565685 121.61579759043087 48.39133378253112 H 0.0 **** 0.06
25008 H 56.37454491293451 123.1096230729882 49.145564442616944 H 0.0 **** 0.06
25009 H 55.413883676144934 122.29443446696149 47.887250729858664 H 0.0 **** 0.06
25010 H 56.92618652174437 123.12642259985043 47.45359453946514 H 0.0 **** 0.06
25011 C 53.51674827145598 218.53673066694182 94.78950529369354 C 0.0 **** -0.24
25012 H 54.317903044527384 219.12809586207737 94.34675502590665 H 0.0 **** 0.06
25013 H 53.880352640048216 218.05375238472237 95.69628663859245 H 0.0 **** 0.06
25014 H 53.1917194819098 217.77657973220374 94.07892566107 H 0.0 **** 0.06
25015 H 52.6780825352195 219.1875322936543 95.0343390788513 H 0.0 **** 0.06
25016 C 141.09308671202697 190.33895179886673 202.213718597698 C 0.0 **** -0.24
25017 H 141.7207948954365 189.8967658925249 201.44053839717975 H 0.0 **** 0.06
25018 H 141.55850160899737 190.1884749839494 203.18896384524442 H 0.0 **** 0.06
25019 H 140.11220149587493 189.863708557995 202.2015274466578 H 0.0 **** 0.06
25020 H 140.98227422052648 191.4072945286605 202.02551131362753 H 0.0 **** 0.06
25021 C 112.48834418407401 132.80989408309998 193.88394689877026 C 0.0 **** -0.24
25022 H 112.02476632426047 132.68295169374034 192.9065116067251 H 0.0 **** 0.06
25023 H 112.3463389938218 131.90409312297345 194.4741771288417 H 0.0 **** 0.06
25024 H 112.02712842497817 133.65444508300433 194.39724526659285 H 0.0 **** 0.06
25025 H 113.5546119899009 133.00034585085857 193.75863661487915 H 0.0 **** 0.06
25026 C 110.37694388503724 41.92158201135052 28.461777473164517 C 0.0 **** -0.24
25027 H 111.32420026217795 41.40300209328862 28.60519218927911 H 0.0 **** 0.06
25028 H 110.551728342051 42.997270409613975 28.443988959847246 H 0.0 **** 0.06
25029 H 109.70057202552402 41.67650013410096 29.28089257738597 H 0.0 **** 0.06
25030 H 109.93127491039601 41.60955540839848 27.517036166145857 H 0.0 **** 0.06
25031 C 53.49506295432312 73.36337996285752 237.32609855800314 C 0.0 **** -0.24
25032 H 52.898975904076266 72.4741015889941 237.53091254967674 H 0.0 **** 0.06
25033 H 54.53437503861599 73.07549102194977 237.16958685628165 H 0.0 **** 0.06
25034 H 53.430428452738 74.04763544621741 238.17200244269333 H 0.0 **** 0.06
25035 H 53.11475430572605 73.85622311730489 236.43087091414108 H 0.0 **** 0.06
25036 C 52.06687309255902 168.96781463392648 160.10981301374488 C 0.0 **** -0.24
25037 H 52.45996059884082 168.2814144792856 159.3605322924829 H 0.0 **** 0.06
25038 H 51.05646776185553 169.26917021580917 159.8317204762257 H 0.0 **** 0.06
25039 H 52.70528810371641 169.84936796912828 160.16547769657151 H 0.0 **** 0.06
25040 H 52.04490039630903 168.47265187073 161.07996537062579 H 0.0 **** 0.06
25041 C 129.03978132285448 153.79686137249516 178.1149603454259 C 0.0 **** -0.24
25042 H 129.66586114571808 153.89696193288847 177.22845005205073 H 0.0 **** 0.06
25043 H 128.0548914771655 154.2208258267959 177.91397596213915 H 0.0 **** 0.06
25044 H 129.5011397923436 154.32765687448295 178.9482490559925 H 0.0 **** 0.06
25045 H 128.93625612041325 152.74205330329292 178.3689584482237 H 0.0 **** 0.06
25046 C 110.1554456813708 200.60434533359623 155.46139109019222 C 0.0 **** -0.24
25047 H 109.32462364337528 201.02673779572558 154.8964495749803 H 0.0 **** 0.06
25048 H 111.01715492166852 200.48499337777525 154.80487615362924 H 0.0 **** 0.06
25049 H 109.86603787301706 199.633512278057 155.86200543687838 H 0.0 **** 0.06
25050 H 110.41349696607895 201.273935024884 156.2814915371021 H 0.0 **** 0.06
25051 C 27.205697660505777 123.47095096381662 173.25027973410067 C 0.0 **** -0.24
25052 H 27.72044098892323 123.52809373555411 174.20924353735984 H 0.0 **** 0.06
25053 H 26.493840685629323 124.29292786262516 173.1694453220972 H 0.0 **** 0.06
25054 H 26.674621129142693 122.52102289069197 173.1793998660102 H 0.0 **** 0.06
25055 H 27.934473927980193 123.54071162033875 172.44228271739348 H 0.0 **** 0.06
25056 C 117.96505660465652 36.57150934099445 114.20181842900936 C 0.0 **** -0.24
25057 H 117.29324414532766 37.30812418808274 114.64124549365667 H 0.0 **** 0.06
25058 H 118.98996559114528 36.942322350802485 114.24769728192672 H 0.0 **** 0.06
25059 H 117.6864257856387 36.399133360092705 113.16248597417251 H 0.0 **** 0.06
25060 H 117.89139695222863 35.63716245643553 114.75720632239731 H 0.0 **** 0.06
25061 C 156.5890013282682 85.98750964354966 84.94347342481493 C 0.0 **** -0.24
25062 H 156.86980937433015 85.07410094580288 84.42085220092156 H 0.0 **** 0.06
25063 H 156.29728811096712 85.74538944374032 85.96642102689182 H 0.0 **** 0.06
25064 H 155.75209324975248 86.45915948546357 84.4283590056296 H 0.0 **** 0.06
25065 H 157.43715227355224 86.67176920340145 84.95991712504758 H 0.0 **** 0.06
25066 C 46.91870033279987 90.43310458124421 185.50450980884926 C 0.0 **** -0.24
25067 H 46.115983618103996 89.83161180509899 185.07830577053304 H 0.0 **** 0.06
25068 H 47.5803914557615 90.77300711743646 184.70863376326622 H 0.0 **** 0.06
25069 H 47.48490937204228 89.83147456314612 186.21609270777088 H 0.0 **** 0.06
25070 H 46.492615704387674 91.295323125674 186.01749386348567 H 0.0 **** 0.06
25071 C 54.458568371693474 23.23007140511352 98.76890635801371 C 0.0 **** -0.24
25072 H 55.29111321621616 22.529612636245503 98.82596031116529 H 0.0 **** 0.06
25073 H 54.81946681443671 24.23989888464685 98.96455488564087 H 0.0 **** 0.06
25074 H 53.70643420198056 22.961609296996798 99.51134279633456 H 0.0 **** 0.06
25075 H 54.01681623292785 23.188519461080702 97.77258960783567 H 0.0 **** 0.06
25076 C 21.280160643099677 10.936358491552596 30.710124155575286 C 0.0 **** -0.24
25077 H 20.24304947123781 11.260473062319349 30.630854237658824 H 0.0 **** 0.06
25078 H 21.494836672166215 10.654048390122014 31.74092034318926 H 0.0 **** 0.06
25079 H 21.938652431953486 11.752744205252881 30.412901170589933 H 0.0 **** 0.06
25080 H 21.444645853627506 10.081098261356189 30.056169948837606 H 0.0 **** 0.06
25081 C 143.1638949453722 188.31832725151088 84.7731593159497 C 0.0 **** -0.24
25082 H 142.12710482227882 187.9932701492915 84.68451568434406 H 0.0 **** 0.06
25083 H 143.78406132762527 187.74709154767038 84.08131828490858 H 0.0 **** 0.06
25084 H 143.50942454672764 188.1517151097682 85.79392778517192 H 0.0 **** 0.06
25085 H 143.2338330430778 189.37912342795008 84.5349289815845 H 0.0 **** 0.06
25086 C 63.344706029142316 151.11427486139843 115.73159323965533 C 0.0 **** -0.24
25087 H 62.97741941118554 150.296961149602 115.11172519205431 H 0.0 **** 0.06
25088 H 63.53033440353346 151.9887431668132 115.10648454819878 H 0.0 **** 0.06
25089 H 64.27122941419964 150.8120544120535 116.21904557484314 H 0.0 **** 0.06
25090 H 62.599025720387175 151.36034863782177 116.48729565370937 H 0.0 **** 0.06
25091 C 160.23400873950155 245.3818656707203 28.231196310951162 C 0.0 **** -0.24
25092 H 159.79200446691866 246.03239428090737 27.477160297297587 H 0.0 **** 0.06
25093 H 159.73186029523072 244.41409264391746 28.213994955530637 H 0.0 **** 0.06
25094 H 160.11734912317397 245.8350802661018 29.21567974639028 H 0.0 **** 0.06
25095 H 161.29343924356112 245.2451767978945 28.016345851924086 H 0.0 **** 0.06
25096 C 49.110216189734814 242.05504055693274 176.1878322911292 C 0.0 **** -0.24
25097 H 49.83074928722682 241.23717917247996 176.1669185590766 H 0.0 **** 0.06
25098 H 49.56547252725916 242.95009794864245 175.76305057214438 H 0.0 **** 0.06
25099 H 48.81403441420345 242.25067157199447 177.2180654801518 H 0.0 **** 0.06
25100 H 48.23233072759757 241.78079397689606 175.6034321789716 H 0.0 **** 0.06
25101 C 187.52811889174086 245.71478858758942 55.29598828504311 C 0.0 **** -0.24
25102 H 186.74437446226045 245.16935950319476 54.77130710389807 H 0.0 **** 0.06
25103 H 187.85299913589452 245.1402142386985 56.163340412175046 H 0.0 **** 0.06
25104 H 187.1422930814522 246.68014581408335 55.623836481565746 H 0.0 **** 0.06
25105 H 188.37387711905893 245.87035665393626 54.62556440776768 H 0.0 **** 0.06
25106 C 110.19358641672204 174.9910417529547 210.9474969184249 C 0.0 **** -0.24
25107 H 109.17450971687148 175.03638381240916 210.5639081506904 H 0.0 **** 0.06
25108 H 110.31523398720097 174.09143752274963 211.5512209209171 H 0.0 **** 0.06
25109 H 110.38960002380642 175.87044379703866 211.56103117226783 H 0.0 **** 0.06
25110 H 110.89378789080834 174.96689931879297 210.11309857368127 H 0.0 **** 0.06
25111 C 180.6949723099512 209.45098367446897 16.189543508755705 C 0.0 **** -0.24
25112 H 179.834748304448 209.05297211458986 16.726365651325153 H 0.0 **** 0.06
25113 H 180.4257934678995 209.6204888430395 15.146568760033787 H 0.0 **** 0.06
25114 H 181.5174706551462 208.73679964923707 16.240673047838584 H 0.0 **** 0.06
25115 H 181.00329283448292 210.3930866307014 16.64376047359349 H 0.0 **** 0.06
25116 C 157.59049812376918 35.171705647753456 196.79253783444057 C 0.0 **** -0.24
25117 H 158.5946676613481 34.91251997172796 197.12851238290182 H 0.0 **** 0.06
25118 H 156.8565677842945 34.61449006553134 197.37514544285028 H 0.0 **** 0.06
25119 H 157.4850599810526 34.91841139386611 195.7374063769023 H 0.0 **** 0.06
25120 H 157.4274814029206 36.240842231866395 196.92750479249497 H 0.0 **** 0.06
25121 C 130.25951846348028 164.64472083020297 90.44934575574399 C 0.0 **** -0.24
25122 H 129.71295405861764 165.54077718166104 90.74422698656525 H 0.0 **** 0.06
25123 H 130.6919069277119 164.17611127515403 91.33357585760504 H 0.0 **** 0.06
25124 H 131.055927470502 164.91652399290797 89.75635491450649 H 0.0 **** 0.06
25125 H 129.57773966843433 163.9472016788106 89.9645661561155 H 0.0 **** 0.06
25126 C 123.0821731517398 142.20594695115346 209.03507986993847 C 0.0 **** -0.24
25127 H 122.78671146731489 141.53941166466853 208.22494489856143 H 0.0 **** 0.06
25128 H 122.20091497880759 142.71216359201347 209.42936062829614 H 0.0 **** 0.06
25129 H 123.78812347138651 142.94611853909043 208.6562900189317 H 0.0 **** 0.06
25130 H 123.5548149608889 141.62685862397973 209.82876998845347 H 0.0 **** 0.06
25131 C 206.00375515171885 81.68208499540253 127.72222194710028 C 0.0 **** -0.24
25132 H 206.01048239764583 80.7824071376225 128.33708783476797 H 0.0 **** 0.06
25133 H 205.4810421269685 82.47925489732643 128.25052849399444 H 0.0 **** 0.06
25134 H 205.49441463829857 81.47450230363665 126.78114690392289 H 0.0 **** 0.06
25135 H 207.02908144396253 81.99217564302435 127.52012455571574 H 0.0 **** 0.06
25136 C 35.99748413773355 40.80893033940524 9.309578963014062 C 0.0 **** -0.24
25137 H 35.1697782807299 40.37125572957464 8.751928970062352 H 0.0 **** 0.06
25138 H 35.88200113511638 40.579759132923556 10.369706700172785 H 0.0 **** 0.06
25139 H 35.99926404692346 41.89026377727353 9.169484691174915 H 0.0 **** 0.06
25140 H 36.93850622378497 40.394073595046876 8.949366696070868 H 0.0 **** 0.06
25141 C 167.32186033715556 172.21551809268553 14.880809838796807 C 0.0 **** -0.24
25142 H 168.3297630695002 172.29012986146665 15.29010037549645 H 0.0 **** 0.06
25143 H 167.18320555296216 172.97894861136862 14.11584169926627 H 0.0 **** 0.06
25144 H 166.5952622608432 172.36391247685378 15.6791580734251 H 0.0 **** 0.06
25145 H 167.18170275136092 171.228361384806 14.440205644801523 H 0.0 **** 0.06
25146 C 203.9418248456549 223.76341752973633 42.04337543362979 C 0.0 **** -0.24
25147 H 204.11306333914393 223.42369909136463 41.02197916926738 H 0.0 **** 0.06
25148 H 202.86981462744887 223.8293297621913 42.228778338124556 H 0.0 **** 0.06
25149 H 204.3963628839888 224.74452779926648 42.181083023118134 H 0.0 **** 0.06
25150 H 204.3887927951099 223.05452770367518 42.74068844805245 H 0.0 **** 0.06
25151 C 226.2519309469011 15.670933267904985 24.523892305381395 C 0.0 **** -0.24
25152 H 227.16945452203578 15.866574160416292 23.96958580869162 H 0.0 **** 0.06
25153 H 226.29414513633543 16.180077181832416 25.48733354237467 H 0.0 **** 0.06
25154 H 226.14477648492777 14.598306747871987 24.683600893592967 H 0.0 **** 0.06
25155 H 225.39839650021744 16.039808772473805 23.954885818599422 H 0.0 **** 0.06
25156 C 18.63222143694219 90.60307820407337 23.242347237079812 C 0.0 **** -0.24
25157 H 18.24873952843673 90.11946624261014 22.343762979229638 H 0.0 **** 0.06
25158 H 19.138926225936302 89.8641464054368 23.86397062255807 H 0.0 **** 0.06
25159 H 17.80484188443438 91.04142923244518 23.800401913050607 H 0.0 **** 0.06
25160 H 19.33640870746413 91.38639748570932 22.961739394802223 H 0.0 **** 0.06
25161 C 54.20043746899859 55.08458534325797 118.8605904077175 C 0.0 **** -0.24
25162 H 53.149968347436214 54.99162862438331 118.58318771916277 H 0.0 **** 0.06
25163 H 54.82439376650515 54.70629795470518 118.05106106532949 H 0.0 **** 0.06
25164 H 54.38870875511111 54.50803748690274 119.76528485553271 H 0.0 **** 0.06
25165 H 54.43592350688294 56.132637535924005 119.04224525741225 H 0.0 **** 0.06
25166 C 95.56565839863924 22.985615446452798 172.66508287698122 C 0.0 **** -0.24
25167 H 94.91840854293 23.329546531721277 173.47216689170452 H 0.0 **** 0.06
25168 H 95.73347973927139 23.80211996162315 171.9620708196134 H 0.0 **** 0.06
25169 H 95.09050882204241 22.153031206020884 172.1482522356882 H 0.0 **** 0.06
25170 H 96.5200993542791 22.660545189786575 173.0793404789589 H 0.0 **** 0.06
25171 C 188.14704053167833 62.01460511766436 237.03631033343407 C 0.0 **** -0.24
25172 H 189.21296616836992 61.92379319026645 236.8280165570253 H 0.0 **** 0.06
25173 H 187.99130915091126 62.07287714750947 238.11375484747754 H 0.0 **** 0.06
25174 H 187.62503501442478 61.144068037008026 236.63986992903057 H 0.0 **** 0.06
25175 H 187.75989499519665 62.91759407555449 236.5626492104838 H 0.0 **** 0.06
25176 C 183.03521270284875 140.08875435844428 227.5838921740322 C 0.0 **** -0.24
25177 H 183.61494309057764 140.00618840760959 226.6644558728309 H 0.0 **** 0.06
25178 H 182.86509516891897 139.0938702105819 227.99591538925392 H 0.0 **** 0.06
25179 H 182.0762395544921 140.56070599116484 227.36712331471938 H 0.0 **** 0.06
25180 H 183.58303810604832 140.69374881586148 228.30554624046485 H 0.0 **** 0.06
25181 C 149.07933313525476 112.388176727884 156.7648675254746 C 0.0 **** -0.24
25182 H 149.06261141008966 111.31985106461534 156.55075021238298 H 0.0 **** 0.06
25183 H 148.07125204389274 112.79171424676477 156.67751456618865 H 0.0 **** 0.06
25184 H 149.73579467640596 112.89105442983606 156.0546845689412 H 0.0 **** 0.06
25185 H 149.44951324936733 112.54935799776266 157.77756336081632 H 0.0 **** 0.06
25186 C 222.29722573443246 79.03017265365995 61.85547618843313 C 0.0 **** -0.24
25187 H 221.4471767360428 79.69392026531253 61.69358613442168 H 0.0 **** 0.06
25188 H 222.96672282319696 79.4712212077516 62.59448051701983 H 0.0 **** 0.06
25189 H 222.83227763650882 78.89064914142588 60.91716110170793 H 0.0 **** 0.06
25190 H 221.9401588247834 78.06630646459215 62.21733493789711 H 0.0 **** 0.06
25191 C 56.42286026038684 29.528280992175226 8.766610922857595 C 0.0 **** -0.24
25192 H 56.89651034301434 30.413915704884715 8.34232407429353 H 0.0 **** 0.06
25193 H 57.02311834657351 28.64840669834348 8.534150108517053 H 0.0 **** 0.06
25194 H 55.42562168085138 29.41097191506026 8.341247107443891 H 0.0 **** 0.06
25195 H 56.34577250784986 29.640980658085425 9.847497513410062 H 0.0 **** 0.06
25196 C 55.12201326761712 30.681552375085673 142.60125275966732 C 0.0 **** -0.24
25197 H 54.105991511626115 30.683801708042353 142.99677305893124 H 0.0 **** 0.06
25198 H 55.202245542100485 31.418469790651642 141.8025612880047 H 0.0 **** 0.06
25199 H 55.356464682375844 29.691664243856934 142.20870773173502 H 0.0 **** 0.06
25200 H 55.82206340290432 30.931334267954313 143.39882870455617 H 0.0 **** 0.06
25201 C 45.34369003531219 244.15702728248306 161.17865904749632 C 0.0 **** -0.24
25202 H 45.9426347838771 244.24735130211104 162.0851022795223 H 0.0 **** 0.06
25203 H 45.93374455823928 244.4779780219243 160.31995720391873 H 0.0 **** 0.06
25204 H 44.45610127285819 244.78531071435455 161.26551356079923 H 0.0 **** 0.06
25205 H 45.04096788204838 243.1189696184007 161.04507707733032 H 0.0 **** 0.06
25206 C 22.295044137769224 238.83374014219493 50.345650252318705 C 0.0 **** -0.24
25207 H 21.687915822532887 239.03983402357056 49.46524235173983 H 0.0 **** 0.06
25208 H 23.163165908093674 239.49380756899285 50.350957341446914 H 0.0 **** 0.06
25209 H 22.62783616020431 237.79555721361277 50.322449918422166 H 0.0 **** 0.06
25210 H 21.702545691137686 239.00518335428393 51.24385645149738 H 0.0 **** 0.06
25211 C 48.388687313523576 22.55068534783551 163.85943809382934 C 0.0 **** -0.24
25212 H 48.417891403552204 21.802249461043303 163.06709068229742 H 0.0 **** 0.06
25213 H 48.814250980503374 22.12968272248493 164.77142380806114 H 0.0 **** 0.06
25214 H 47.355731557982494 22.846180172870135 164.04249213450848 H 0.0 **** 0.06
25215 H 48.969136668449465 23.422435428512898 163.5564728851619 H 0.0 **** 0.06
25216 C 201.77915338953468 216.01675321618063 50.47334934776303 C 0.0 **** -0.24
25217 H 201.52555601934685 215.34413928418812 51.292487576354944 H 0.0 **** 0.06
25218 H 202.1458777249882 215.43508614215364 49.62626654901368 H 0.0 **** 0.06
25219 H 202.55301878222932 216.71167137188434 50.80007198861544 H 0.0 **** 0.06
25220 H 200.8918666299267 216.57441054108205 50.1746386561674 H 0.0 **** 0.06
25221 C 238.20812598756316 78.33926981070476 238.4918876964603 C 0.0 **** -0.24
25222 H 237.64913017940728 78.88411846008864 239.25306915375333 H 0.0 **** 0.06
25223 H 239.08833597669246 77.88267543712934 238.9456095627343 H 0.0 **** 0.06
25224 H 238.51971570455925 79.02919958485623 237.70786070648643 H 0.0 **** 0.06
25225 H 237.5757663347886 77.56296047681548 238.0621463230197 H 0.0 **** 0.06
25226 C 39.47552962468242 28.148953941563462 214.39620128442326 C 0.0 **** -0.24
25227 H 39.111324355940994 27.12722777311629 214.50306440661512 H 0.0 **** 0.06
25228 H 39.820105389651076 28.307399471803606 213.3746832387002 H 0.0 **** 0.06
25229 H 40.30087846200101 28.315464684323942 215.08866575395152 H 0.0 **** 0.06
25230 H 38.66876198539383 28.846862766370947 214.6202901465502 H 0.0 **** 0.06
25231 C 30.7915082328432 34.52955866595876 113.48152880179052 C 0.0 **** -0.24
25232 H 30.96272489144272 35.558396921223675 113.16247036801005 H 0.0 **** 0.06
25233 H 31.351022022563768 33.8518288549686 112.83744170916802 H 0.0 **** 0.06
25234 H 29.728128073528893 34.30150688208076 113.41409303826273 H 0.0 **** 0.06
25235 H 31.1239208061111 34.4092182764191 114.51286223281787 H 0.0 **** 0.06
25236 C 153.8263736938747 142.85261462331283 215.72464008082673 C 0.0 **** -0.24
25237 H 153.24243161155337 141.94523001828807 215.8766709518477 H 0.0 **** 0.06
25238 H 153.30449553480037 143.5064165091527 215.02408039421755 H 0.0 **** 0.06
25239 H 154.80329577134458 142.59177134969568 215.3184915819919 H 0.0 **** 0.06
25240 H 153.95337064687797 143.36687214871566 216.67625845060326 H 0.0 **** 0.06
25241 C 48.75193207606668 76.28203395827163 131.6269923900316 C 0.0 **** -0.24
25242 H 49.45156072520109 75.97281364065691 130.85064767621202 H 0.0 **** 0.06
25243 H 48.1234382238336 75.43549676973643 131.9069492683476 H 0.0 **** 0.06
25244 H 48.12533159295839 77.09036369038796 131.24984063090093 H 0.0 **** 0.06
25245 H 49.307030472964755 76.62759174960166 132.49899304942437 H 0.0 **** 0.06
25246 C 56.306969975653715 125.61615420162724 108.74129485433039 C 0.0 **** -0.24
25247 H 57.16099972307708 125.7375778766534 108.075748431768 H 0.0 **** 0.06
25248 H 56.60237191851692 125.86839432050488 109.75993276232694 H 0.0 **** 0.06
25249 H 55.96406994824244 124.58203675767467 108.70833651688028 H 0.0 **** 0.06
25250 H 55.50146713232931 126.27653757353701 108.42212949288793 H 0.0 **** 0.06
25251 C 140.60028050900544 177.7152257302083 139.14419996721927 C 0.0 **** -0.24
25252 H 139.52976983135096 177.92020043034233 139.13627342478281 H 0.0 **** 0.06
25253 H 141.08245113446085 178.26855506264036 138.33774121689382 H 0.0 **** 0.06
25254 H 140.76741210998645 176.64776790631242 139.00250527742702 H 0.0 **** 0.06
25255 H 141.02227487109323 178.02541266563583 140.10084117775972 H 0.0 **** 0.06
25256 C 187.97879392086685 12.347871279651002 47.54648843542678 C 0.0 **** -0.24
25257 H 188.13606107442695 11.429018683209506 48.11143933449138 H 0.0 **** 0.06
25258 H 188.5341490184914 13.161371753995283 48.01476108705799 H 0.0 **** 0.06
25259 H 186.91623963348422 12.590106074802819 47.53642580676512 H 0.0 **** 0.06
25260 H 188.33033761280035 12.209516170984173 46.5238118147921 H 0.0 **** 0.06
25261 C 3.8301515407010953 92.56896704482074 16.461498749598576 C 0.0 **** -0.24
25262 H 4.667759040810608 93.25527976785898 16.58892362265746 H 0.0 **** 0.06
25263 H 4.074500774730993 91.83622991775027 15.692443274975773 H 0.0 **** 0.06
25264 H 2.9444758680836145 93.129476514809 16.162326046996185 H 0.0 **** 0.06
25265 H 3.6350609644114797 92.0563708957981 17.403840211657297 H 0.0 **** 0.06
25266 C 152.98392025617403 148.07420849501864 120.53078237442628 C 0.0 **** -0.24
25267 H 153.2103054325973 148.44726473830482 119.53229484148471 H 0.0 **** 0.06
25268 H 152.36216328875688 147.18281259777717 120.4522000003704 H 0.0 **** 0.06
25269 H 152.45194437388935 148.84143961924875 121.09343913740153 H 0.0 **** 0.06
25270 H 153.91313522891969 147.82500009440403 121.0445530335767 H 0.0 **** 0.06
25271 C 180.2326309995301 109.09287416205643 115.72427063697188 C 0.0 **** -0.24
25272 H 179.60575520639335 109.41775189148012 116.55472519361476 H 0.0 **** 0.06
25273 H 179.61356249625084 108.60261416915358 114.97278417741327 H 0.0 **** 0.06
25274 H 180.98412031479813 108.39226416786119 116.08979358397806 H 0.0 **** 0.06
25275 H 180.726256531702 109.95693882165784 115.2810430953507 H 0.0 **** 0.06
25276 C 94.85178967109456 124.56873081173222 213.53001484275055 C 0.0 **** -0.24
25277 H 95.30003630862129 125.42601733237171 214.032995309421 H 0.0 **** 0.06
25278 H 95.21977987809314 124.51649920970132 212.50438301042925 H 0.0 **** 0.06
25279 H 93.76765456645555 124.67774473250935 213.52249147228744 H 0.0 **** 0.06
25280 H 95.12182410957504 123.65532262546623 214.06020769317263 H 0.0 **** 0.06
25281 C 226.65511108439176 187.86511656255226 197.27112909028847 C 0.0 **** -0.24
25282 H 227.2698712804767 188.64280204006002 197.72390692193915 H 0.0 **** 0.06
25283 H 226.6555080966878 187.98699155518966 196.18707793084926 H 0.0 **** 0.06
25284 H 225.63436732862573 187.94334096488367 197.64551752224395 H 0.0 **** 0.06
25285 H 227.06191615906886 186.8864177667737 197.5271893864316 H 0.0 **** 0.06
25286 C 14.881519022406536 147.4466872963005 45.872288420264766 C 0.0 **** -0.24
25287 H 14.906777520126838 147.57116365710598 44.78926938890146 H 0.0 **** 0.06
25288 H 14.881631603479633 148.42739279278499 46.350005181523045 H 0.0 **** 0.06
25289 H 15.758943593625958 146.88642909459787 46.193712483315565 H 0.0 **** 0.06
25290 H 13.980055388432703 146.90448978344142 46.15527557374479 H 0.0 **** 0.06
25291 C 93.14020927823447 41.51967913420626 17.439996824998616 C 0.0 **** -0.24
25292 H 92.65231307509748 40.97695236873744 18.249368505948254 H 0.0 **** 0.06
25293 H 93.47242937730275 40.81378723410958 16.678768869395654 H 0.0 **** 0.06
25294 H 94.00071800069267 42.06123854681917 17.833571107301452 H 0.0 **** 0.06
25295 H 92.43666048881161 42.22650497648871 17.000094678393125 H 0.0 **** 0.06
25296 C 234.70641792165256 221.19814519316816 170.4316909692589 C 0.0 **** -0.24
25297 H 233.71849672372116 220.7653881513035 170.58952195220724 H 0.0 **** 0.06
25298 H 235.46859732129855 220.49404903770608 170.7670292247342 H 0.0 **** 0.06
25299 H 234.791842212241 222.12416988879863 170.99995280960067 H 0.0 **** 0.06
25300 H 234.84562803678904 221.40797992781398 169.37114653471733 H 0.0 **** 0.06
25301 C 221.45360604015985 189.684501625338 68.50723412992005 C 0.0 **** -0.24
25302 H 221.27493727420224 190.74752900938876 68.6719424520744 H 0.0 **** 0.06
25303 H 222.05917590979993 189.28752984081692 69.32244153405219 H 0.0 **** 0.06
25304 H 221.97955835396476 189.5480698224407 67.56198225765127 H 0.0 **** 0.06
25305 H 220.49951866049005 189.15748430071926 68.47174339706456 H 0.0 **** 0.06
25306 C 217.07731703591102 94.68171171638215 26.91396506792225 C 0.0 **** -0.24
25307 H 216.1039528637004 95.0277641208832 26.56715029820336 H 0.0 **** 0.06
25308 H 217.089451591843 94.66581053846471 28.003670290338363 H 0.0 **** 0.06
25309 H 217.8526149830061 95.35683988447923 26.550971095173594 H 0.0 **** 0.06
25310 H 217.26288032029794 93.67833834680192 26.532958898987687 H 0.0 **** 0.06
25311 C 149.3207284795465 167.50116674979375 218.44274471750134 C 0.0 **** -0.24
25312 H 149.19322092089115 168.5835939034471 218.44829872206648 H 0.0 **** 0.06
25313 H 150.20192532619416 167.24253247554444 217.8550909037052 H 0.0 **** 0.06
25314 H 148.4401403803107 167.03431954948508 218.00388957125097 H 0.0 **** 0.06
25315 H 149.4499807125981 167.14523990193663 219.4655499394704 H 0.0 **** 0.06
25316 C 147.9851170772191 124.61696896643065 196.67771024806083 C 0.0 **** -0.24
25317 H 147.16254838616942 124.28339400503361 197.31030337347954 H 0.0 **** 0.06
25318 H 147.5846821688515 125.07719969895732 195.77433871463955 H 0.0 **** 0.06
25319 H 148.6046349752783 123.76166090661721 196.40681862392012 H 0.0 **** 0.06
25320 H 148.58919477662076 125.34447730407675 197.21996417558398 H 0.0 **** 0.06
25321 C 238.12909865574005 8.050319935314945 48.7817667611576 C 0.0 **** -0.24
25322 H 238.3711087626839 8.170145077800186 47.7255671511694 H 0.0 **** 0.06
25323 H 238.44234977967352 7.061701779247841 49.117535200961754 H 0.0 **** 0.06
25324 H 237.05364171004655 8.158157098824034 48.92251857338118 H 0.0 **** 0.06
25325 H 238.6490478038796 8.812984629791885 49.361307971048234 H 0.0 **** 0.06
25326 C 119.98595412608657 102.24075907397071 9.340248691883772 C 0.0 **** -0.24
25327 H 119.59905417003955 102.63872837248616 8.402844073906095 H 0.0 **** 0.06
25328 H 120.92063180150296 101.71185031518002 9.151064265253524 H 0.0 **** 0.06
25329 H 119.2589538451229 101.55198989983046 9.770379118322197 H 0.0 **** 0.06
25330 H 120.1664942548025 103.06030447152031 10.03622008312405 H 0.0 **** 0.06
25331 C 38.34932003653108 204.21574122658532 19.6889679201594 C 0.0 **** -0.24
25332 H 38.49164903682288 205.23915819801798 20.033961707453926 H 0.0 **** 0.06
25333 H 37.362845447210034 203.86370502400788 19.991442663128936 H 0.0 **** 0.06
25334 H 39.11402404560465 203.57514245018555 20.128770784797865 H 0.0 **** 0.06
25335 H 38.429402999164154 204.18395073259725 18.60245254932724 H 0.0 **** 0.06
25336 C 206.5458982272027 151.87644440871648 158.21521922800073 C 0.0 **** -0.24
25337 H 205.83760919240942 151.05057252692265 158.27774796281003 H 0.0 **** 0.06
25338 H 207.42248027338042 151.56037610061878 157.65028976024158 H 0.0 **** 0.06
25339 H 206.8471218896191 152.17339576282478 159.2195148826407 H 0.0 **** 0.06
25340 H 206.074933008013 152.72141945070817 157.71237480370408 H 0.0 **** 0.06
25341 C 215.11680374479732 163.5507800581009 185.44111621005453 C 0.0 **** -0.24
25342 H 215.32975005550688 164.61858743269408 185.48236957809115 H 0.0 **** 0.06
25343 H 215.07170989026935 163.15012347800143 186.45339157277039 H 0.0 **** 0.06
25344 H 215.9058909766913 163.04448376952976 184.8846245359984 H 0.0 **** 0.06
25345 H 214.16047057548656 163.38991669948092 184.9428016260227 H 0.0 **** 0.06
25346 C 202.0847790921499 8.23428591071135 151.21965003975563 C 0.0 **** -0.24
25347 H 202.99599625486795 8.120514341053422 150.63149879060634 H 0.0 **** 0.06
25348 H 201.2339052744933 8.359129471177042 150.54984678362544 H 0.0 **** 0.06
25349 H 202.1739891331773 9.111003449325551 151.861469717881 H 0.0 **** 0.06
25350 H 201.93645624947 7.347714491297495 151.83574014399352 H 0.0 **** 0.06
25351 C 55.49956413023486 235.44961090709094 3.8847046012942315 C 0.0 **** -0.24
25352 H 56.40468259922105 235.77545077521495 3.3717196980142887 H 0.0 **** 0.06
25353 H 54.634830041648 235.953012691931 3.4523457593510187 H 0.0 **** 0.06
25354 H 55.57370810734557 235.6990912196369 4.944060458205769 H 0.0 **** 0.06
25355 H 55.3871178198537 234.37107809537386 3.7730651248435976 H 0.0 **** 0.06
25356 C 55.89398480920394 239.1838943063902 125.70809312106095 C 0.0 **** -0.24
25357 H 55.45919090850762 238.23916722237442 125.38313533849944 H 0.0 **** 0.06
25358 H 56.839978628453565 239.3455087773275 125.18905935689853 H 0.0 **** 0.06
25359 H 56.07034947603276 239.1523081290373 126.78262621655878 H 0.0 **** 0.06
25360 H 55.20836381654141 239.99856198877785 125.47549692936661 H 0.0 **** 0.06
25361 C 149.84812940619113 222.04387379249297 153.64595790361525 C 0.0 **** -0.24
25362 H 149.60195141971866 223.0258362458326 154.04902080264986 H 0.0 **** 0.06
25363 H 150.64675115606232 222.1425897547058 152.91006250476892 H 0.0 **** 0.06
25364 H 148.96658422380224 221.61568805149722 153.1690557860885 H 0.0 **** 0.06
25365 H 150.1765479306902 221.3907133366754 154.45424761524254 H 0.0 **** 0.06
25366 C 35.89993808737255 70.44882300548983 207.35630002397556 C 0.0 **** -0.24
25367 H 35.521750110767925 70.37082270941781 208.37548713868205 H 0.0 **** 0.06
25368 H 36.47110990681816 71.37113151898026 207.24974332990706 H 0.0 **** 0.06
25369 H 35.062958539175284 70.45558831946141 206.65774648994199 H 0.0 **** 0.06
25370 H 36.54519680499597 69.59593147411005 207.14253892960915 H 0.0 **** 0.06
25371 C 122.85030202444295 186.43757926122265 221.90970731587205 C 0.0 **** -0.24
25372 H 121.97370414535501 186.29866426017819 222.54208722168195 H 0.0 **** 0.06
25373 H 123.74794175502836 186.4438517916711 222.52899735318192 H 0.0 **** 0.06
25374 H 122.76800121851323 187.38625645214444 221.37860399171544 H 0.0 **** 0.06
25375 H 122.9112393169826 185.6224911955341 221.18912098999073 H 0.0 **** 0.06
25376 C 151.99458525971343 54.13609208514066 214.72035898361327 C 0.0 **** -0.24
25377 H 151.56420897055608 53.54016891884402 215.5256275136709 H 0.0 **** 0.06
25378 H 151.74236418751133 55.18544129930913 214.87071961429942 H 0.0 **** 0.06
25379 H 151.5938901052805 53.79791202245312 213.76522433408792 H 0.0 **** 0.06
25380 H 153.07852046153025 54.018665876359876 214.7228366291991 H 0.0 **** 0.06
25381 C 137.18733041381356 155.68912843703995 223.99973290309416 C 0.0 **** -0.24
25382 H 137.53434152014898 155.92134057054236 222.99308232711573 H 0.0 **** 0.06
25383 H 138.0067055625116 155.2566404291308 224.57552372953913 H 0.0 **** 0.06
25384 H 136.3652823867562 154.97598293052832 223.94502376940233 H 0.0 **** 0.06
25385 H 136.84437761674133 156.60272048342821 224.48552866510505 H 0.0 **** 0.06
25386 C 87.45233921964737 23.244059704205043 207.46505398819556 C 0.0 **** -0.24
25387 H 87.09514402005945 22.594918900517925 206.6651112508642 H 0.0 **** 0.06
25388 H 88.21553666364227 23.917198896948662 207.07303502302855 H 0.0 **** 0.06
25389 H 87.87889109565049 22.635838258685766 208.26349105634608 H 0.0 **** 0.06
25390 H 86.6199817562233 23.827530717220412 207.85739719283416 H 0.0 **** 0.06
25391 C 200.48094265900437 163.81874594872062 2.3580039666720296 C 0.0 **** -0.24
25392 H 201.48802146733198 163.42809415959618 2.2137056021399673 H 0.0 **** 0.06
25393 H 200.4624985994855 164.45942275822387 3.240132426598535 H 0.0 **** 0.06
25394 H 199.78685746814185 162.99006732293344 2.494901896854941 H 0.0 **** 0.06
25395 H 200.18715390716295 164.39798168589505 1.481832914452312 H 0.0 **** 0.06
25396 C 43.732968136072586 77.88921884259526 19.385809396414942 C 0.0 **** -0.24
25397 H 43.672186812719076 78.10781665905364 20.45225264433131 H 0.0 **** 0.06
25398 H 43.58645710590699 76.8211257810857 19.22569288469768 H 0.0 **** 0.06
25399 H 44.71380245464569 78.18236717434402 19.01135156833257 H 0.0 **** 0.06
25400 H 42.959652307776594 78.44676287489148 18.856858683914965 H 0.0 **** 0.06
25401 C 135.80683835931092 146.18389373883014 105.26335051638179 C 0.0 **** -0.24
25402 H 136.81059575369147 145.90232789281987 105.57895520615008 H 0.0 **** 0.06
25403 H 135.07453934875076 145.74434242888202 105.94175628705278 H 0.0 **** 0.06
25404 H 135.62859455748682 145.81955731970686 104.25089720674745 H 0.0 **** 0.06
25405 H 135.71236709012788 147.2703117547939 105.27924568452585 H 0.0 **** 0.06
25406 C 68.77329790197254 243.11678378067384 236.73394209388624 C 0.0 **** -0.24
25407 H 68.00468748464633 243.08381472989612 235.96169431096783 H 0.0 **** 0.06
25408 H 68.75595162791524 242.18725795221235 237.30218711275944 H 0.0 **** 0.06
25409 H 68.58043480909095 243.95619640155945 237.40175856964748 H 0.0 **** 0.06
25410 H 69.75105173709997 243.241271002178 236.2675035148676 H 0.0 **** 0.06
25411 C 108.57052132296818 20.55841492148724 166.65645509489795 C 0.0 **** -0.24
25412 H 109.63239091852131 20.545033590015862 166.4123332735647 H 0.0 **** 0.06
25413 H 108.3786752949332 19.86688001757733 167.4777255503299 H 0.0 **** 0.06
25414 H 107.99287752361798 20.253569103350486 165.78303752550536 H 0.0 **** 0.06
25415 H 108.27819282770835 21.565349784898913 166.9527907017002 H 0.0 **** 0.06
25416 C 15.968681198665436 36.75789517665325 240.29422998534966 C 0.0 **** -0.24
25417 H 15.67373040496878 36.11313961805743 239.46730444304313 H 0.0 **** 0.06
25418 H 16.275943498220215 37.729335154674246 239.90593779515575 H 0.0 **** 0.06
25419 H 16.799856435120773 36.301868620501864 240.83274004308987 H 0.0 **** 0.06
25420 H 15.124765197992843 36.88828925022834 240.97177979169237 H 0.0 **** 0.06
25421 C 166.97616516671312 246.8941385511743 114.73277534657842 C 0.0 **** -0.24
25422 H 167.21492305506385 246.55986554805042 115.7415789859881 H 0.0 **** 0.06
25423 H 167.22736910412996 247.9494313937882 114.62983769648076 H 0.0 **** 0.06
25424 H 165.9114637312691 246.7543365434977 114.54641596597259 H 0.0 **** 0.06
25425 H 167.55012776922493 246.3114518566903 114.01146908214244 H 0.0 **** 0.06
25426 C 197.183614822918 173.07029887218926 118.98085133209568 C 0.0 **** -0.24
25427 H 197.63597597539132 173.18681509112602 117.99571482717138 H 0.0 **** 0.06
25428 H 197.910930341208 172.63493106363538 119.66540999864097 H 0.0 **** 0.06
25429 H 196.31610852180023 172.41447268798257 118.9060021210936 H 0.0 **** 0.06
25430 H 196.8706814852631 174.04545404019856 119.35423142683726 H 0.0 **** 0.06
25431 C 83.78140490932785 229.45060794011368 110.51800312475959 C 0.0 **** -0.24
25432 H 83.48343659203536 230.19471852526337 111.25765432789302 H 0.0 **** 0.06
25433 H 83.3133907783293 229.68184750673217 109.56119666368718 H 0.0 **** 0.06
25434 H 83.4631539546235 228.4626119985536 110.84962928696615 H 0.0 **** 0.06
25435 H 84.8656380894191 229.46541342725885 110.40535863369624 H 0.0 **** 0.06
25436 C 167.96399099307246 200.5903168429462 47.640883697078365 C 0.0 **** -0.24
25437 H 167.85334448648786 199.83494721340165 46.862016792138945 H 0.0 **** 0.06
25438 H 167.08503275935095 200.57905465148676 48.285164033921035 H 0.0 **** 0.06
25439 H 168.06691482815953 201.5727698210688 47.18144775248811 H 0.0 **** 0.06
25440 H 168.8525928568473 200.37160649191878 48.233925086240504 H 0.0 **** 0.06
25441 C 138.5296672418261 114.25376691032304 176.60943985114707 C 0.0 **** -0.24
25442 H 137.67848631540835 113.5721247486575 176.59649478340975 H 0.0 **** 0.06
25443 H 138.46064906294671 114.9379177271729 175.76384969192816 H 0.0 **** 0.06
25444 H 139.4543183030261 113.67973544452386 176.53841257250411 H 0.0 **** 0.06
25445 H 138.52476412369032 114.82218140577052 177.5393696806328 H 0.0 **** 0.06
25446 C 5.871206783039241 75.61982883809787 44.35029735961038 C 0.0 **** -0.24
25447 H 5.5345809288171495 76.55314319683274 43.899381727420376 H 0.0 **** 0.06
25448 H 5.029898502917433 75.12789390606258 44.83759702234019 H 0.0 **** 0.06
25449 H 6.645051082305571 75.83216021281669 45.08853916608163 H 0.0 **** 0.06
25450 H 6.276011506557751 74.96786860828942 43.576865039353635 H 0.0 **** 0.06
25451 C 169.62315911615994 204.83268196232808 121.85882596301383 C 0.0 **** -0.24
25452 H 170.33463476754218 204.32257839849055 121.20915348833452 H 0.0 **** 0.06
25453 H 169.1166944574071 205.61789311782155 121.2958600864365 H 0.0 **** 0.06
25454 H 170.1535127199094 205.27403856828877 122.70235246858346 H 0.0 **** 0.06
25455 H 168.88870457759944 204.11613601349293 122.22459636764097 H 0.0 **** 0.06
25456 C 110.3329541545742 241.12700862459343 173.87361353253647 C 0.0 **** -0.24
25457 H 110.742453793685 240.72421513395074 172.9468077134469 H 0.0 **** 0.06
25458 H 109.25543750625698 241.25108946880408 173.77136689948247 H 0.0 **** 0.06
25459 H 110.79147775024049 242.09396007029756 174.08323603471368 H 0.0 **** 0.06
25460 H 110.54394527191525 240.43963167497034 174.69316234258775 H 0.0 **** 0.06
25461 C 146.6807046425604 175.62342141865065 53.60153821619187 C 0.0 **** -0.24
25462 H 146.40409264761064 176.56725091893685 53.132968866103255 H 0.0 **** 0.06
25463 H 145.84904734025736 174.92269133542075 53.52590056744006 H 0.0 **** 0.06
25464 H 146.9173640827749 175.79560332208476 54.65168024180022 H 0.0 **** 0.06
25465 H 147.5530377360102 175.2083673213988 53.09679705632104 H 0.0 **** 0.06
25466 C 184.44178831085893 1.1714333079777646 155.479330508898 C 0.0 **** -0.24
25467 H 184.75648695497495 0.6608330192383391 156.38914624399996 H 0.0 **** 0.06
25468 H 183.544651162965 0.6925311100348779 155.0863480704389 H 0.0 **** 0.06
25469 H 185.23868014985032 1.115169422167213 154.73725278470639 H 0.0 **** 0.06
25470 H 184.22756767199095 2.2159523101742025 155.70395048530432 H 0.0 **** 0.06
25471 C 217.7683519715325 245.23637871640483 114.3508462525484 C 0.0 **** -0.24
25472 H 217.83042588487518 245.09739778018107 113.2708468488598 H 0.0 **** 0.06
25473 H 218.03382571396412 244.30522777713156 114.85195122608823 H 0.0 **** 0.06
25474 H 216.75053991694244 245.51930116685895 114.62198107367428 H 0.0 **** 0.06
25475 H 218.45743529685404 246.02372168485806 114.65603928613714 H 0.0 **** 0.06
25476 C 188.5412582047797 55.83415806554868 30.516774301302675 C 0.0 **** -0.24
25477 H 187.47618185743687 55.702133482944845 30.706193014816478 H 0.0 **** 0.06
25478 H 188.98223313225253 54.875573938525775 30.24295473310694 H 0.0 **** 0.06
25479 H 189.02605391675317 56.2139645014814 31.41538864857577 H 0.0 **** 0.06
25480 H 188.67922661721337 56.54398615394834 29.701056597109144 H 0.0 **** 0.06
25481 C 187.90090275948094 180.8482669024878 222.5442955594468 C 0.0 **** -0.24
25482 H 187.77811940870333 180.32396243502603 221.5961871000388 H 0.0 **** 0.06
25483 H 186.92956599423684 181.203132652003 222.8908035260147 H 0.0 **** 0.06
25484 H 188.56909571749904 181.697565261271 222.4052702808625 H 0.0 **** 0.06
25485 H 188.3247138331753 180.16871867796937 223.2828176924253 H 0.0 **** 0.06
25486 C 195.9534199498613 202.16899263489566 87.64450833031165 C 0.0 **** -0.24
25487 H 196.3983926914416 202.93686384809845 87.01110669211593 H 0.0 **** 0.06
25488 H 195.00542026198667 201.8465626893019 87.21282198591629 H 0.0 **** 0.06
25489 H 195.779123053681 202.57708689541306 88.64011881445342 H 0.0 **** 0.06
25490 H 196.63086370937174 201.31785524324954 87.71447020439103 H 0.0 **** 0.06
25491 C 4.22501235604382 154.63264559650924 179.00593528169952 C 0.0 **** -0.24
25492 H 3.8585836165144087 154.1304350797249 178.11046269853176 H 0.0 **** 0.06
25493 H 4.093457786684695 153.9790061317951 179.86933173352412 H 0.0 **** 0.06
25494 H 3.666465140326096 155.5559098374641 179.1599116377493 H 0.0 **** 0.06
25495 H 5.283985088728755 154.86514093795094 178.8842009067045 H 0.0 **** 0.06
25496 C 34.136591510810234 148.2815243602642 192.63210040329813 C 0.0 **** -0.24
25497 H 35.193588988594314 148.02629658237305 192.7076032657544 H 0.0 **** 0.06
25498 H 33.56225922336586 147.3851462282075 192.39795464157265 H 0.0 **** 0.06
25499 H 33.99687748641138 149.02098162544263 191.84282635406788 H 0.0 **** 0.06
25500 H 33.79373755786547 148.69480897671383 193.5808540939625 H 0.0 **** 0.06
25501 C 57.67800260021062 81.55377291726742 150.1720489205413 C 0.0 **** -0.24
25502 H 58.52834069624802 81.60930232295968 149.4928706154195 H 0.0 **** 0.06
25503 H 57.64882339010995 82.45008549181838 150.79219883659115 H 0.0 **** 0.06
25504 H 57.776779937162445 80.67433483837294 150.8078706452986 H 0.0 **** 0.06
25505 H 56.756027327549305 81.4816569563153 149.5939291517528 H 0.0 **** 0.06
25506 C 29.605214838917163 98.98071078979208 224.9211427499803 C 0.0 **** -0.24
25507 H 29.816871217905202 99.41466303886747 223.94461954070414 H 0.0 **** 0.06
25508 H 29.75099666767933 97.90127104008798 224.87797961534312 H 0.0 **** 0.06
25509 H 28.5737803061094 99.19686770861631 225.19976177494374 H 0.0 **** 0.06
25510 H 30.278754242239657 99.40906031587448 225.6635623933775 H 0.0 **** 0.06
25511 C 71.88963257135029 96.55024504252881 89.40814444557353 C 0.0 **** -0.24
25512 H 72.17427200606542 96.82332884305404 90.42430742458751 H 0.0 **** 0.06
25513 H 71.6485979240071 95.48765372304828 89.37166760707791 H 0.0 **** 0.06
25514 H 72.71827986600155 96.75872184877622 88.73172915373382 H 0.0 **** 0.06
25515 H 71.0187749641353 97.1312018870122 89.10589829817158 H 0.0 **** 0.06
25516 C 124.49344945493769 63.406587358858104 111.18717957536964 C 0.0 **** -0.24
25517 H 124.74228889713555 64.37319946600289 110.74818009481064 H 0.0 **** 0.06
25518 H 124.10704196797886 62.744409451709686 110.41299017142634 H 0.0 **** 0.06
25519 H 123.73795511437723 63.54319107191978 111.9607610472626 H 0.0 **** 0.06
25520 H 125.38857313989871 62.96732743197876 111.62804789899153 H 0.0 **** 0.06
25521 C 130.6244348970445 227.71963005369844 171.4576336354705 C 0.0 **** -0.24
25522 H 131.09027635358257 228.51434892712007 172.04092620837383 H 0.0 **** 0.06
25523 H 129.54254742801854 227.85315159957077 171.46176550884425 H 0.0 **** 0.06
25524 H 130.87275934199812 226.7532223915499 171.89702159065774 H 0.0 **** 0.06
25525 H 130.99172398530075 227.75853035173228 170.43232975016141 H 0.0 **** 0.06
25526 C 33.038601000003254 58.647885751979516 54.48672575222014 C 0.0 **** -0.24
25527 H 32.74160806422387 58.98676312412124 55.479257309590224 H 0.0 **** 0.06
25528 H 33.54091711258408 57.683519571701396 54.56770087189793 H 0.0 **** 0.06
25529 H 33.7186155410763 59.37527530033276 54.04359909343222 H 0.0 **** 0.06
25530 H 32.1542684199577 58.54597475571546 53.8577562735629 H 0.0 **** 0.06
25531 C 28.88498633370112 185.29831288898433 108.30033892852822 C 0.0 **** -0.24
25532 H 28.88951600873331 186.2844521855219 107.83582914342063 H 0.0 **** 0.06
25533 H 27.860420693255023 185.02204473943087 108.55415923937502 H 0.0 **** 0.06
25534 H 29.48956967481486 185.3209375130133 109.20724007142306 H 0.0 **** 0.06
25535 H 29.29749324364103 184.56660171788218 107.60605269399477 H 0.0 **** 0.06
25536 C 93.95554531027648 98.47226918395953 141.3988040361738 C 0.0 **** -0.24
25537 H 93.80789549933709 97.3934420373524 141.33959170160531 H 0.0 **** 0.06
25538 H 94.59258185741163 98.7050261467028 142.25200459958438 H 0.0 **** 0.06
25539 H 92.99055988501016 98.96367965869706 141.51960318899677 H 0.0 **** 0.06
25540 H 94.42965937677161 98.82366014771054 140.48296245537955 H 0.0 **** 0.06
25541 C 37.26224181314588 118.05617292261155 204.48500531931683 C 0.0 **** -0.24
25542 H 36.533491477755575 118.86247054929615 204.5612460187026 H 0.0 **** 0.06
25543 H 37.91254060736077 118.23409970539936 203.62795216061267 H 0.0 **** 0.06
25544 H 36.742695160543946 117.10680201386111 204.35599090050715 H 0.0 **** 0.06
25545 H 37.86157962779883 118.0209923857029 205.3951460170062 H 0.0 **** 0.06
25546 C 159.47623273734982 26.323183290660694 89.21960249626844 C 0.0 **** -0.24
25547 H 160.38200493011607 26.24910183152815 88.61835609543098 H 0.0 **** 0.06
25548 H 159.61505017416172 27.07693436642157 89.994535785284 H 0.0 **** 0.06
25549 H 159.26805156828038 25.35928048736851 89.68300895592617 H 0.0 **** 0.06
25550 H 158.6388959026297 26.60764860956469 88.5804881871181 H 0.0 **** 0.06
25551 C 87.99198460395456 10.39211037284494 168.33864978672707 C 0.0 **** -0.24
25552 H 88.74334666854918 9.971804576403855 169.00691893260534 H 0.0 **** 0.06
25553 H 88.40915170738566 11.254723380503691 167.81974038325504 H 0.0 **** 0.06
25554 H 87.12325478678088 10.70340451451031 168.91935370275078 H 0.0 **** 0.06
25555 H 87.69136146420425 9.63873503271489 167.61065260809949 H 0.0 **** 0.06
25556 C 197.34293316931763 6.696024443257556 241.16535472851115 C 0.0 **** -0.24
25557 H 197.72580276944342 7.686012708154536 241.41085149497889 H 0.0 **** 0.06
25558 H 196.25789271884884 6.738981998416762 241.06802824960465 H 0.0 **** 0.06
25559 H 197.60987797969372 5.996603237847609 241.95669662728528 H 0.0 **** 0.06
25560 H 197.77975833376365 6.361807585851878 240.2236146106772 H 0.0 **** 0.06
25561 C 133.00598694994883 18.56989113160101 126.34957019846036 C 0.0 **** -0.24
25562 H 132.0617864831649 18.836259829306428 125.87427264207068 H 0.0 **** 0.06
25563 H 133.8200877672844 19.113104001677655 125.86919824791534 H 0.0 **** 0.06
25564 H 133.1746077091577 17.498674565404173 126.2488743335783 H 0.0 **** 0.06
25565 H 132.96719368480944 18.83506184873822 127.40658729963383 H 0.0 **** 0.06
25566 C 183.8414454497747 1.3909188772829566 187.74124553137108 C 0.0 **** -0.24
25567 H 183.2372955232292 1.866357733294052 188.51384007441135 H 0.0 **** 0.06
25568 H 183.21414518378242 0.7228503191190896 187.14924353119835 H 0.0 **** 0.06
25569 H 184.64352403849486 0.8193468244198812 188.2073741478992 H 0.0 **** 0.06
25570 H 184.26950048550782 2.1563993139051547 187.09290212653985 H 0.0 **** 0.06
25571 C 91.350693953204 147.26748454607284 175.65654525225486 C 0.0 **** -0.24
25572 H 92.23034707559506 147.83543320715003 175.95858211528426 H 0.0 **** 0.06
25573 H 91.66420971126277 146.3418031096288 175.1744536512704 H 0.0 **** 0.06
25574 H 90.75845615655061 147.8587228491134 174.95882236974856 H 0.0 **** 0.06
25575 H 90.7505180004562 147.03347164302434 176.53659716507937 H 0.0 **** 0.06
25576 C 138.38572952200863 95.62618621586026 228.3868123150164 C 0.0 **** -0.24
25577 H 138.25005701854636 95.45159449720009 229.4545104371896 H 0.0 **** 0.06
25578 H 139.32589989876212 95.17930434411713 228.06261819029683 H 0.0 **** 0.06
25579 H 138.40645928035698 96.6985287792753 228.19372096802135 H 0.0 **** 0.06
25580 H 137.55928786407898 95.17392782119305 227.8376628732966 H 0.0 **** 0.06
25581 C 192.01432259791153 47.45554556295852 142.30314840705998 C 0.0 **** -0.24
25582 H 191.57760368261313 47.7944916770999 141.36357632748673 H 0.0 **** 0.06
25583 H 192.99759428862666 47.026495772385616 142.1121441621899 H 0.0 **** 0.06
25584 H 191.3682257911775 46.7004175451892 142.75104255055592 H 0.0 **** 0.06
25585 H 192.11189911131427 48.3004458706442 142.98440963246333 H 0.0 **** 0.06
25586 C 16.22011295050001 61.102327381566624 90.32365277905296 C 0.0 **** -0.24
25587 H 16.222565466374505 60.8039454860872 91.3728971817896 H 0.0 **** 0.06
25588 H 15.193640209506412 61.25866619204655 89.99298459062996 H 0.0 **** 0.06
25589 H 16.680613851078505 60.31751973469875 89.7232725242736 H 0.0 **** 0.06
25590 H 16.78517916927902 62.027126868568615 90.20817704911252 H 0.0 **** 0.06
25591 C 60.88388433123589 12.322272750339408 11.78766859105653 C 0.0 **** -0.24
25592 H 60.476858832513045 13.223439370317465 11.328824894917972 H 0.0 **** 0.06
25593 H 60.467888076631795 11.443710818930299 11.293858278880293 H 0.0 **** 0.06
25594 H 60.621724099738316 12.303771719555186 12.846038235737552 H 0.0 **** 0.06
25595 H 61.968767468298694 12.320318805387444 11.682490982049984 H 0.0 **** 0.06
25596 C 234.84686998209548 31.70003445057675 85.48203846640814 C 0.0 **** -0.24
25597 H 234.39296563834094 30.790628826004706 85.0884030707195 H 0.0 **** 0.06
25598 H 234.86661190313117 32.46208491697901 84.7023116412791 H 0.0 **** 0.06
25599 H 235.86428729556764 31.485527158709218 85.80699105960088 H 0.0 **** 0.06
25600 H 234.26305095260233 32.06030697413965 86.32867216055678 H 0.0 **** 0.06
25601 C 206.0106528059712 47.52201100974379 67.85233946600133 C 0.0 **** -0.24
25602 H 205.26523960241866 47.85639888371617 68.57371140345364 H 0.0 **** 0.06
25603 H 205.54502150821617 46.842421361770604 67.1381364275139 H 0.0 **** 0.06
25604 H 206.8155357139396 47.0048497202974 68.37533591070653 H 0.0 **** 0.06
25605 H 206.41643126008546 48.3837272610498 67.32283355248339 H 0.0 **** 0.06
25606 C 13.07938472881223 148.36588078834922 212.88586962095235 C 0.0 **** -0.24
25607 H 13.642538085053673 147.43552802588582 212.8089046364592 H 0.0 **** 0.06
25608 H 13.723302392950785 149.2021557655503 212.61295978802949 H 0.0 **** 0.06
25609 H 12.730451651321431 148.49573762876267 213.91052199207246 H 0.0 **** 0.06
25610 H 12.224221622678911 148.32986385882583 212.2113984162263 H 0.0 **** 0.06
25611 C 128.41505103745152 3.552895127592393 69.24117599460476 C 0.0 **** -0.24
25612 H 129.4996066983056 3.5461943243775806 69.13273390665472 H 0.0 **** 0.06
25613 H 127.95681128478486 3.1608761191387487 68.33288639293792 H 0.0 **** 0.06
25614 H 128.0734263419608 4.574269209697633 69.40921801719239 H 0.0 **** 0.06
25615 H 128.13135151878782 2.930112319670883 70.08986011207608 H 0.0 **** 0.06
25616 C 156.37332700010683 153.91258709845457 27.646368360947037 C 0.0 **** -0.24
25617 H 156.90909204264364 153.97342542326945 26.69949979629709 H 0.0 **** 0.06
25618 H 155.39735104140703 154.38651791079675 27.542922338039915 H 0.0 **** 0.06
25619 H 156.94566228403588 154.42187060963263 28.42130912701353 H 0.0 **** 0.06
25620 H 156.24206813104183 152.86534467525428 27.922018507284548 H 0.0 **** 0.06
25621 C 103.10595080009625 234.8936095479836 210.20871199258409 C 0.0 **** -0.24
25622 H 103.89029459732768 235.5763052562366 209.88064347158195 H 0.0 **** 0.06
25623 H 103.55688462505739 233.9671150053432 210.566976052094 H 0.0 **** 0.06
25624 H 102.44095781501454 234.67654282496196 209.37354259400462 H 0.0 **** 0.06
25625 H 102.53670457034431 235.35670826744325 211.01539897409046 H 0.0 **** 0.06
25626 C 199.41975774613164 84.04593108706999 166.6838726560004 C 0.0 **** -0.24
25627 H 199.87212888789605 83.15371629822414 167.11598222882935 H 0.0 **** 0.06
25628 H 198.36613560998296 83.85442016609983 166.4758016350267 H 0.0 **** 0.06
25629 H 199.93308772655564 84.3011802355986 165.75695854467793 H 0.0 **** 0.06
25630 H 199.50637364728465 84.87423751152255 167.38726566449245 H 0.0 **** 0.06
25631 C 63.475782799917454 153.92012620067484 106.81810196189039 C 0.0 **** -0.24
25632 H 64.25270360671433 153.91912311678186 107.58170304172342 H 0.0 **** 0.06
25633 H 62.52977503953102 153.61141178140358 107.2625311354019 H 0.0 **** 0.06
25634 H 63.747463837719124 153.22626504757153 106.02196962836163 H 0.0 **** 0.06
25635 H 63.37318871570534 154.9237048569424 106.4062040420747 H 0.0 **** 0.06
25636 C 129.18883946859017 226.80562031972656 67.44379116140607 C 0.0 **** -0.24
25637 H 129.3547724240959 225.7463782995041 67.24798216353537 H 0.0 **** 0.06
25638 H 128.23355406298 227.10899653287976 67.01695017989621 H 0.0 **** 0.06
25639 H 129.99115234324356 227.38877689333927 66.99081429745516 H 0.0 **** 0.06
25640 H 129.17822264317334 226.9788305692446 68.51992454638395 H 0.0 **** 0.06
25641 C 148.1452503626862 225.65056326634772 208.46866950560195 C 0.0 **** -0.24
25642 H 147.95284341695535 226.19753400501634 209.39208444755442 H 0.0 **** 0.06
25643 H 148.64399174217894 226.30662244023097 207.75525380213395 H 0.0 **** 0.06
25644 H 147.19961160583102 225.30730298106275 208.04705083442906 H 0.0 **** 0.06
25645 H 148.78199007382992 224.79187900543573 208.68078373453517 H 0.0 **** 0.06
25646 C 42.193120074950826 68.32314740071328 4.178386729381373 C 0.0 **** -0.24
25647 H 42.26879081497793 69.39809603971202 4.011497720419442 H 0.0 **** 0.06
25648 H 41.77159019083862 67.84774481513847 3.292774225783745 H 0.0 **** 0.06
25649 H 41.54697570466995 68.13342132958968 5.035416506420205 H 0.0 **** 0.06
25650 H 43.18472939849748 67.91573041420915 4.374123574740651 H 0.0 **** 0.06
25651 C 126.70250560262394 22.503020211456118 198.98533272385322 C 0.0 **** -0.24
25652 H 126.73669875269564 23.43298053054818 199.5523082049504 H 0.0 **** 0.06
25653 H 126.88536792804825 22.71380825232248 197.93137003631978 H 0.0 **** 0.06
25654 H 125.71949677368337 22.04471506798987 199.09818048108883 H 0.0 **** 0.06
25655 H 127.46590504507998 21.82054940314066 199.3582569137173 H 0.0 **** 0.06
25656 C 199.041360153999 32.791328195457 75.71787205181695 C 0.0 **** -0.24
25657 H 198.52935155882784 32.88177093240158 76.67579317452467 H 0.0 **** 0.06
25658 H 200.10005370654753 33.01665981986184 75.85002045061518 H 0.0 **** 0.06
25659 H 198.60665467147612 33.493882479655326 75.00666660131486 H 0.0 **** 0.06
25660 H 198.9303555353556 31.774912515793986 75.34110328616762 H 0.0 **** 0.06
25661 C 227.16556819405855 122.59514531685647 117.81962118324373 C 0.0 **** -0.24
25662 H 227.20191686548753 121.91666959400263 116.96751553659325 H 0.0 **** 0.06
25663 H 227.40809287307832 122.04764766492232 118.73014227885506 H 0.0 **** 0.06
25664 H 226.16368106456315 123.0173787139465 117.90457834079402 H 0.0 **** 0.06
25665 H 227.8875995486297 123.39933469337922 117.67489472590663 H 0.0 **** 0.06
25666 C 220.70850218335443 153.50570441302068 88.47120465611121 C 0.0 **** -0.24
25667 H 221.77167129202462 153.37538827439252 88.67358973726112 H 0.0 **** 0.06
25668 H 220.178114165678 152.58232460196476 88.70780318103499 H 0.0 **** 0.06
25669 H 220.56600647413808 153.74738073486182 87.41836274562809 H 0.0 **** 0.06
25670 H 220.31872624836063 154.31635782585005 89.08703120312163 H 0.0 **** 0.06
25671 C 98.8577286498583 174.2442096283937 103.77463134893517 C 0.0 **** -0.24
25672 H 99.82123960756812 174.17092252777064 104.2790282211295 H 0.0 **** 0.06
25673 H 98.16618470392251 174.81592795146753 104.39489074277387 H 0.0 **** 0.06
25674 H 98.45796502817188 173.24424526620024 103.60984700987211 H 0.0 **** 0.06
25675 H 98.98706087098262 174.7468486555999 102.81631472564914 H 0.0 **** 0.06
25676 C 31.964315161856746 78.05497045175525 114.20638207797055 C 0.0 **** -0.24
25677 H 32.58459742506447 77.99448158377268 113.31192325645421 H 0.0 **** 0.06
25678 H 32.538986778074644 77.72213019150806 115.07029842618078 H 0.0 **** 0.06
25679 H 31.088441209121697 77.41755436731273 114.08422592406967 H 0.0 **** 0.06
25680 H 31.644963189663102 79.08563599766501 114.35686266704914 H 0.0 **** 0.06
25681 C 109.66939020871564 147.400921303349 147.4031612649808 C 0.0 **** -0.24
25682 H 109.22154565615509 148.36925412767965 147.62831093771666 H 0.0 **** 0.06
25683 H 109.32551162218834 146.66461277215828 148.12957012601223 H 0.0 **** 0.06
25684 H 110.75522152296446 147.48296689391213 147.45233898218004 H 0.0 **** 0.06
25685 H 109.37310086185917 147.08941275236702 146.40112802083183 H 0.0 **** 0.06
25686 C 64.57865498266295 17.62847516410507 45.862244058226295 C 0.0 **** -0.24
25687 H 63.91788513602637 18.139688566392564 46.56190085269483 H 0.0 **** 0.06
25688 H 64.18905571684587 16.629809045561572 45.65850159962271 H 0.0 **** 0.06
25689 H 65.575428580195 17.54727386621107 46.29639301738328 H 0.0 **** 0.06
25690 H 64.63204288290925 18.194334403831903 44.932563137327264 H 0.0 **** 0.06
25691 C 205.955723091673 96.07124957128502 227.34253875435286 C 0.0 **** -0.24
25692 H 204.88098767158993 96.18541658501374 227.47712783402397 H 0.0 **** 0.06
25693 H 206.21923093931156 96.30743602862628 226.31058034401102 H 0.0 **** 0.06
25694 H 206.24249523979847 95.04346595802548 227.56521149402448 H 0.0 **** 0.06
25695 H 206.48107165232494 96.74885898411114 228.01615359260524 H 0.0 **** 0.06
25696 C 188.48339052732723 188.89356881255208 115.19367374210697 C 0.0 **** -0.24
25697 H 188.81297740881018 188.37201108465217 114.29495154058932 H 0.0 **** 0.06
25698 H 187.88538472099202 189.76121005700597 114.91135067327201 H 0.0 **** 0.06
25699 H 189.3533738302217 189.22210174149546 115.76255926625134 H 0.0 **** 0.06
25700 H 187.88259387843368 188.22072534868087 115.80470779883979 H 0.0 **** 0.06
25701 C 66.31960458303627 69.14980003107178 150.66233714273108 C 0.0 **** -0.24
25702 H 66.25671780059733 69.85484651956477 151.49211318783944 H 0.0 **** 0.06
25703 H 65.68678368398454 68.2867840088131 150.87148453778022 H 0.0 **** 0.06
25704 H 67.35190053103807 68.82209652593227 150.54195420454707 H 0.0 **** 0.06
25705 H 65.98280942980404 69.63502800619489 149.74675623595837 H 0.0 **** 0.06
25706 C 203.17939408778005 195.95347273397186 247.4918224955049 C 0.0 **** -0.24
25707 H 203.71465951560162 196.85782062441325 247.78123463069244 H 0.0 **** 0.06
25708 H 202.13257671259294 196.193982322267 247.30445628571562 H 0.0 **** 0.06
25709 H 203.2456160018017 195.2205246687568 248.29550300104944 H 0.0 **** 0.06
25710 H 203.62534760093916 195.54167421960773 246.58687000515047 H 0.0 **** 0.06
25711 C 122.04065528065485 115.80141239282756 79.2454035195251 C 0.0 **** -0.24
25712 H 121.35095811959295 116.26168507702079 78.53691042511522 H 0.0 **** 0.06
25713 H 122.22136401841018 114.76584359093471 78.9555566856371 H 0.0 **** 0.06
25714 H 121.60507308251263 115.82849411428714 80.24470843172782 H 0.0 **** 0.06
25715 H 122.98152875159678 116.34995098453072 79.24396302352142 H 0.0 **** 0.06
25716 C 113.40479931886506 222.52252339416225 63.24460923383046 C 0.0 **** -0.24
25717 H 112.66962202283392 222.9552188344702 62.56612152727811 H 0.0 **** 0.06
25718 H 114.29721492849009 223.14897763180448 63.25994045893205 H 0.0 **** 0.06
25719 H 113.66834856485553 221.52207745995747 62.90277551995601 H 0.0 **** 0.06
25720 H 112.98419987772496 222.46500922390692 64.24835461769405 H 0.0 **** 0.06
25721 C 179.3008920978612 165.9561147845672 208.17381541485028 C 0.0 **** -0.24
25722 H 179.81864720863837 165.25885536436485 208.83269060617255 H 0.0 **** 0.06
25723 H 178.58984035985281 166.54515134103008 208.75364464530222 H 0.0 **** 0.06
25724 H 178.76736806338434 165.3986769100269 207.40365459144763 H 0.0 **** 0.06
25725 H 180.02736871256678 166.61950193096425 207.70442773707694 H 0.0 **** 0.06
25726 C 133.18705398605104 242.82554121567986 117.77600116514049 C 0.0 **** -0.24
25727 H 133.93832447769083 242.94473455951288 118.55672529352373 H 0.0 **** 0.06
25728 H 133.26253434330076 241.82465407458386 117.34928201895804 H 0.0 **** 0.06
25729 H 133.35361387096728 243.5671711722051 116.99552991673212 H 0.0 **** 0.06
25730 H 132.1942981336241 242.9645645417821 118.20408281826738 H 0.0 **** 0.06
25731 C 248.75438689162922 5.727908321632384 88.32751054992727 C 0.0 **** -0.24
25732 H 249.47569635085858 5.487460693384662 87.54615968373068 H 0.0 **** 0.06
25733 H 248.3595649112939 4.805031614992657 88.75296414557513 H 0.0 **** 0.06
25734 H 247.9383622886028 6.310879332056572 87.90179091628735 H 0.0 **** 0.06
25735 H 249.24501553964922 6.307371327174934 89.10900125071927 H 0.0 **** 0.06
25736 C 120.60687106503204 8.58303446625898 228.24332085651434 C 0.0 **** -0.24
25737 H 121.20845203184962 8.43937141403741 229.14078664175855 H 0.0 **** 0.06
25738 H 119.59492250008387 8.87585139205467 228.52766385986843 H 0.0 **** 0.06
25739 H 120.5704348314942 7.652551683592392 227.67711262860598 H 0.0 **** 0.06
25740 H 121.05230531574333 9.36521400053995 227.62835331557386 H 0.0 **** 0.06
25741 C 155.4381909850274 24.067744922101866 75.75357218714953 C 0.0 **** -0.24
25742 H 155.62064214134102 23.062556980294104 76.13225059475113 H 0.0 **** 0.06
25743 H 155.15877173756178 24.722365522528662 76.57970918091192 H 0.0 **** 0.06
25744 H 154.6282349899492 24.03938126680916 75.02289347274731 H 0.0 **** 0.06
25745 H 156.3424186533183 24.446738210374832 75.27812190295461 H 0.0 **** 0.06
25746 C 103.47797370636218 137.7891376341436 117.82305046348893 C 0.0 **** -0.24
25747 H 103.46749593722336 137.57412037034467 116.75384029902386 H 0.0 **** 0.06
25748 H 102.61977037950771 137.31224216932515 118.29752843336848 H 0.0 **** 0.06
25749 H 103.42591363178303 138.8671288632699 117.97753422591825 H 0.0 **** 0.06
25750 H 104.39720062601583 137.4028591841767 118.26166576581033 H 0.0 **** 0.06
25751 C 146.75040840398407 178.01922757544008 124.23935344048161 C 0.0 **** -0.24
25752 H 146.21704497332496 178.7978779382306 124.78525786348641 H 0.0 **** 0.06
25753 H 146.47434972372668 177.04278261738978 124.63795025706881 H 0.0 **** 0.06
25754 H 147.82402345473093 178.16779309270805 124.35129347199657 H 0.0 **** 0.06
25755 H 146.48416561084363 178.06979139083046 123.18304114964158 H 0.0 **** 0.06
25756 C 126.36000047139575 182.93209882412003 157.6635767750943 C 0.0 **** -0.24
25757 H 126.24662368087195 181.86177134494528 157.4923011004946 H 0.0 **** 0.06
25758 H 126.51842910888908 183.11503461656878 158.72654452401784 H 0.0 **** 0.06
25759 H 125.45817404989003 183.44973005233697 157.3354981357994 H 0.0 **** 0.06
25760 H 127.21581527100406 183.30160447737728 157.09895640121576 H 0.0 **** 0.06
25761 C 224.72681651711784 220.17829943692666 52.587968569265385 C 0.0 **** -0.24
25762 H 224.16147960913838 220.06054556215616 53.51215403199507 H 0.0 **** 0.06
25763 H 225.43151653403856 219.35221727026624 52.48661413837846 H 0.0 **** 0.06
25764 H 225.27296467430634 221.12108789174926 52.613904759539366 H 0.0 **** 0.06
25765 H 224.04228106985906 220.17798966402225 51.73965453794301 H 0.0 **** 0.06
25766 C 150.94095527595834 239.7389779899631 61.46221005296917 C 0.0 **** -0.24
25767 H 151.56197586013872 240.5906042647945 61.74075573176307 H 0.0 **** 0.06
25768 H 150.81002285196513 239.72267895116843 60.380030486161786 H 0.0 **** 0.06
25769 H 149.96799529826552 239.82495315970746 61.94487630454057 H 0.0 **** 0.06
25770 H 151.42515268523124 238.81591960803595 61.78357694237411 H 0.0 **** 0.06
25771 C 89.65176313253644 143.25991396526888 195.58961944134717 C 0.0 **** -0.24
25772 H 89.65148930167555 143.08013648601798 194.51446710159252 H 0.0 **** 0.06
25773 H 88.79553943583727 142.75914721036185 196.04203430842477 H 0.0 **** 0.06
25774 H 89.58892506580582 144.33102785399132 195.77866698247288 H 0.0 **** 0.06
25775 H 90.57269025072094 142.8683768714924 196.02171840731367 H 0.0 **** 0.06
25776 C 125.80483720194408 179.57103907773842 174.02431592697363 C 0.0 **** -0.24
25777 H 126.83171957228578 179.33678990654852 173.74402948320636 H 0.0 **** 0.06
25778 H 125.24206361313077 178.64522731202788 174.14769761373182 H 0.0 **** 0.06
25779 H 125.34457815680418 180.17425635471744 173.24179430001467 H 0.0 **** 0.06
25780 H 125.80079142111876 180.1271244979308 174.96084632635433 H 0.0 **** 0.06
25781 C 106.32339240619075 119.94587258061924 181.3759726207902 C 0.0 **** -0.24
25782 H 105.54220364267013 119.18541056876197 181.3589074340405 H 0.0 **** 0.06
25783 H 106.91030772948562 119.88335370943068 180.45892552534622 H 0.0 **** 0.06
25784 H 106.97254046284422 119.78047412021735 182.235379225004 H 0.0 **** 0.06
25785 H 105.86735612088333 120.93275944541196 181.44912167058587 H 0.0 **** 0.06
25786 C 49.20998445203554 1.359091612845873 244.32727482668244 C 0.0 **** -0.24
25787 H 48.42223755426237 1.9916473392385683 243.91619008809357 H 0.0 **** 0.06
25788 H 50.181595039856646 1.8080524349628604 244.117530626924 H 0.0 **** 0.06
25789 H 49.15858162500676 0.3719928792120868 243.8674798598189 H 0.0 **** 0.06
25790 H 49.0761257152851 1.2658345619000784 245.40462784325945 H 0.0 **** 0.06
25791 C 219.16191855530985 194.3783552481713 87.49135675469026 C 0.0 **** -0.24
25792 H 219.0597786562763 194.83319139927042 86.50597861029777 H 0.0 **** 0.06
25793 H 219.08473685044333 195.1505157948806 88.25713456089883 H 0.0 **** 0.06
25794 H 220.13269986961217 193.88742863242243 87.56618506338904 H 0.0 **** 0.06
25795 H 218.37083263322444 193.64227255321305 87.63476491369633 H 0.0 **** 0.06
25796 C 178.24037676036238 70.31547332941557 99.7360215797359 C 0.0 **** -0.24
25797 H 177.69965858653165 70.00435879668046 98.84204553107139 H 0.0 **** 0.06
25798 H 177.5320068644324 70.49771021437374 100.54398034994958 H 0.0 **** 0.06
25799 H 178.79380177470568 71.23073131818163 99.52520142021825 H 0.0 **** 0.06
25800 H 178.9358764942134 69.5300417458638 100.03258847172194 H 0.0 **** 0.06
25801 C 31.172290410222203 197.83030942031516 31.819016984334183 C 0.0 **** -0.24
25802 H 31.729936862772334 197.57448809859642 30.918053358640236 H 0.0 **** 0.06
25803 H 31.794157286799972 198.44857505668273 32.46734080108243 H 0.0 **** 0.06
25804 H 30.893345616138333 196.9180948620355 32.345765466839424 H 0.0 **** 0.06
25805 H 30.27257890711354 198.38120461289225 31.54491067830793 H 0.0 **** 0.06
25806 C 183.7278545853664 133.31818114841104 238.8698366843573 C 0.0 **** -0.24
25807 H 183.06061980419028 133.89923527234566 238.23264799327862 H 0.0 **** 0.06
25808 H 184.69469251758542 133.20919639676987 238.37817998656607 H 0.0 **** 0.06
25809 H 183.29550737406856 132.33389511954078 239.04569588188014 H 0.0 **** 0.06
25810 H 183.85954800858684 133.8335239181777 239.82136558207083 H 0.0 **** 0.06
25811 C 56.854939434939155 207.20951278137366 135.02851456542973 C 0.0 **** -0.24
25812 H 57.47404501323385 208.00256187517056 134.60984526757844 H 0.0 **** 0.06
25813 H 55.802404260444604 207.46515323319304 134.90020536886266 H 0.0 **** 0.06
25814 H 57.075727031609034 207.09866640661375 136.0902883126496 H 0.0 **** 0.06
25815 H 57.06661919148527 206.2726018474504 134.51417212850185 H 0.0 **** 0.06
25816 C 112.67075714128543 128.34935838200502 218.71414880215886 C 0.0 **** -0.24
25817 H 113.57613789316233 127.9047032005933 218.30155574771783 H 0.0 **** 0.06
25818 H 112.89390461968853 129.35136846404302 219.08166421008661 H 0.0 **** 0.06
25819 H 112.3066290498924 127.73320912322845 219.53608760170385 H 0.0 **** 0.06
25820 H 111.90791616389288 128.40748805615704 217.93764435605124 H 0.0 **** 0.06
25821 C 1.9668546756844023 10.398058435867853 75.40512229990358 C 0.0 **** -0.24
25822 H 2.656090666047419 11.0461792354576 74.86460057075729 H 0.0 **** 0.06
25823 H 2.4336949622359327 10.066475640362029 76.33351100194974 H 0.0 **** 0.06
25824 H 1.726500914498132 9.531145570368636 74.78984291623439 H 0.0 **** 0.06
25825 H 1.0539116966687914 10.9479687022354 75.63277638194651 H 0.0 **** 0.06
25826 C 96.69190924930541 112.41093809880985 110.57213865472346 C 0.0 **** -0.24
25827 H 95.7257751851626 112.49173747698663 111.07061533698516 H 0.0 **** 0.06
25828 H 97.48976818122526 112.54560707627806 111.30312905798147 H 0.0 **** 0.06
25829 H 96.76974521616589 113.17975777854807 109.80351688193713 H 0.0 **** 0.06
25830 H 96.78210155350294 111.42601225688523 110.11253119571987 H 0.0 **** 0.06
25831 C 87.67107574556806 163.2707702818412 228.97886979188164 C 0.0 **** -0.24
25832 H 87.68541792620056 163.3025031449206 230.06831363912187 H 0.0 **** 0.06
25833 H 86.93198749496148 163.97989963653913 228.60509888321408 H 0.0 **** 0.06
25834 H 87.411387031262 162.2660314402968 228.64788612870268 H 0.0 **** 0.06
25835 H 88.65671154886095 163.53589227184636 228.5955970845065 H 0.0 **** 0.06
25836 C 91.88951036119187 223.94508108018337 146.52391859621912 C 0.0 **** -0.24
25837 H 91.37699232074323 223.80777526795922 147.4770282222035 H 0.0 **** 0.06
25838 H 91.51723661419138 224.84849488770226 146.039430895578 H 0.0 **** 0.06
25839 H 91.70088947474528 223.0838217448261 145.88286392663252 H 0.0 **** 0.06
25840 H 92.96099265352271 224.04044808878623 146.6990396896229 H 0.0 **** 0.06
25841 C 213.81436564343844 86.07482999283624 195.20298548616483 C 0.0 **** -0.24
25842 H 213.84531533047755 85.33980921289151 196.00725418416056 H 0.0 **** 0.06
25843 H 213.13062979536028 86.87978027966207 195.47211536668 H 0.0 **** 0.06
25844 H 213.46819347652087 85.59533439769646 194.28723040065378 H 0.0 **** 0.06
25845 H 214.8123528042587 86.4827316913966 195.04420766957224 H 0.0 **** 0.06
25846 C 242.90726671339013 6.988034536536645 59.862279736019985 C 0.0 **** -0.24
25847 H 242.00166282550882 7.265978101534415 59.32344902219819 H 0.0 **** 0.06
25848 H 243.6918161086628 6.737109509475971 59.147776793463834 H 0.0 **** 0.06
25849 H 242.7032747702471 6.125881364313187 60.49589771805691 H 0.0 **** 0.06
25850 H 243.23353212441637 7.824253097277193 60.48016804582517 H 0.0 **** 0.06
25851 C 202.926740997257 164.56461392926207 94.78220118972567 C 0.0 **** -0.24
25852 H 202.21307725206387 165.17532996006705 94.22969820133235 H 0.0 **** 0.06
25853 H 202.69553095433318 164.6089831146135 95.84613579932105 H 0.0 **** 0.06
25854 H 203.93505152931417 164.94341162057773 94.6119432694953 H 0.0 **** 0.06
25855 H 202.86365576269873 163.5321517279416 94.439063285707 H 0.0 **** 0.06
25856 C 48.656139983912084 216.06164995130135 112.38295907121528 C 0.0 **** -0.24
25857 H 48.096961165553026 216.43439569881326 111.52465596168389 H 0.0 **** 0.06
25858 H 49.57910852302918 215.59380892617583 112.04028368437648 H 0.0 **** 0.06
25859 H 48.052982684653145 215.3267195598946 112.91736638303016 H 0.0 **** 0.06
25860 H 48.8933269072576 216.8907131715512 113.04896590314866 H 0.0 **** 0.06
25861 C 169.6355165603822 73.07733502034321 106.47917382573141 C 0.0 **** -0.24
25862 H 168.67176041896906 72.84881771711011 106.93586138384927 H 0.0 **** 0.06
25863 H 169.54260092113716 73.03445511674178 105.39383951317123 H 0.0 **** 0.06
25864 H 170.37553445666182 72.34828211072605 106.81062962373574 H 0.0 **** 0.06
25865 H 169.9502218612693 74.0764342053574 106.77889027686913 H 0.0 **** 0.06
25866 C 231.0046539263136 203.02474506533144 179.88266581047884 C 0.0 **** -0.24
25867 H 230.5064531547834 203.12163966720226 180.846605634056 H 0.0 **** 0.06
25868 H 232.05709924691473 202.78601206443096 180.04112711953772 H 0.0 **** 0.06
25869 H 230.92337308014703 203.96401227829543 179.33626660776127 H 0.0 **** 0.06
25870 H 230.53268431380437 202.22736599033482 179.3089020424736 H 0.0 **** 0.06
25871 C 229.98108357060244 184.20759674890752 233.7197529130306 C 0.0 **** -0.24
25872 H 230.7669027195738 183.48187213934858 233.50486306385176 H 0.0 **** 0.06
25873 H 229.8398480666287 184.27933266583602 234.79828110541922 H 0.0 **** 0.06
25874 H 229.05146650649493 183.8846712560631 233.2514615443686 H 0.0 **** 0.06
25875 H 230.26863878350116 185.18195384405772 233.32408660833022 H 0.0 **** 0.06
25876 C 20.47524842611034 21.625849447542265 53.01067865268354 C 0.0 **** -0.24
25877 H 20.69157419153626 20.57341688197559 52.825504591259545 H 0.0 **** 0.06
25878 H 20.91731822042216 21.925539324053233 53.96112794049884 H 0.0 **** 0.06
25879 H 19.396080002377488 21.773890315050693 53.04766488978774 H 0.0 **** 0.06
25880 H 20.89747793001692 22.229113104025743 52.20600679942848 H 0.0 **** 0.06
25881 C 174.15661702136626 220.52858120606683 68.15377302339925 C 0.0 **** -0.24
25882 H 174.19758168765742 221.5008411045213 68.64413732514336 H 0.0 **** 0.06
25883 H 175.13423501383528 220.0491449655182 68.21549444424556 H 0.0 **** 0.06
25884 H 173.88262019742396 220.6607763092732 67.1073047917927 H 0.0 **** 0.06
25885 H 173.41290928011801 219.90342306939013 68.64769778153087 H 0.0 **** 0.06
25886 C 142.29602990604184 123.67076445998148 41.084171834125954 C 0.0 **** -0.24
25887 H 142.04704382406106 123.51052701463095 40.0355525261505 H 0.0 **** 0.06
25888 H 142.24306929942958 122.72273642429741 41.619031238287704 H 0.0 **** 0.06
25889 H 141.58887866519325 124.37618680344735 41.52184410882552 H 0.0 **** 0.06
25890 H 143.304990504082 124.07519463879493 41.1595794122224 H 0.0 **** 0.06
25891 C 183.56197186709505 162.78315826843257 31.893579395242313 C 0.0 **** -0.24
25892 H 183.8224495418799 163.82105457051944 31.68787278573953 H 0.0 **** 0.06
25893 H 183.2445686286557 162.29896461874503 30.97026240796808 H 0.0 **** 0.06
25894 H 182.75014089117076 162.7500486313005 32.619524144069175 H 0.0 **** 0.06
25895 H 184.43157816513508 162.26346766542272 32.2959773745188 H 0.0 **** 0.06
25896 C 65.50205074724502 103.11342346483528 223.7091251389637 C 0.0 **** -0.24
25897 H 65.40252251376324 103.92310923183089 222.9860002109752 H 0.0 **** 0.06
25898 H 64.89634926915147 102.2654349555873 223.38954138378398 H 0.0 **** 0.06
25899 H 65.16083771745264 103.45548654584749 224.6866889963814 H 0.0 **** 0.06
25900 H 66.54664853805801 102.81090233040712 223.7745160922467 H 0.0 **** 0.06
25901 C 9.522126974127644 184.54989481945188 245.7617798494735 C 0.0 **** -0.24
25902 H 9.251671213804599 185.03099210837297 246.70173923666482 H 0.0 **** 0.06
25903 H 8.710002395328246 183.89576410017386 245.44293937321513 H 0.0 **** 0.06
25904 H 10.428906905423418 183.96245705195525 245.9021813604308 H 0.0 **** 0.06
25905 H 9.69540736290142 185.31109440456783 245.00202551176733 H 0.0 **** 0.06
25906 C 134.63364231784678 53.750781859966196 7.539635214499725 C 0.0 **** -0.24
25907 H 134.78388126808426 54.43657207988906 8.373105427397462 H 0.0 **** 0.06
25908 H 135.31454531471778 52.90468518851574 7.637681685057345 H 0.0 **** 0.06
25909 H 134.83269054288178 54.2701813601893 6.6016391892759145 H 0.0 **** 0.06
25910 H 133.60502889631599 53.39189621918683 7.5445426503708575 H 0.0 **** 0.06
25911 C 86.8832323271246 188.92524911424618 207.694933216978 C 0.0 **** -0.24
25912 H 87.71751322476243 189.40478362927158 208.2062888618649 H 0.0 **** 0.06
25913 H 87.16894862595697 187.91339526544027 207.4043259697679 H 0.0 **** 0.06
25914 H 86.6230003736433 189.49859646093148 206.80537393497985 H 0.0 **** 0.06
25915 H 86.0242928233342 188.8816140456464 208.36446624621476 H 0.0 **** 0.06
25916 C 66.93796087469099 29.615801921714677 79.14066337845063 C 0.0 **** -0.24
25917 H 66.80760360423258 29.999432735648696 80.15196498427795 H 0.0 **** 0.06
25918 H 67.13442645357014 30.445195024366768 78.45971628294566 H 0.0 **** 0.06
25919 H 66.03219187779504 29.09631642639326 78.82935982144383 H 0.0 **** 0.06
25920 H 67.77940674845993 28.923261517238785 79.1207084756654 H 0.0 **** 0.06
25921 C 140.37038153742233 32.98666551470106 170.46236188715392 C 0.0 **** -0.24
25922 H 140.12591257691997 33.75305654992867 171.1986575402145 H 0.0 **** 0.06
25923 H 141.39343252844517 33.13031657616092 170.11446015773993 H 0.0 **** 0.06
25924 H 139.6841287781646 33.061913821684655 169.6188760179904 H 0.0 **** 0.06
25925 H 140.27697482158496 32.001322102842224 170.92059013789103 H 0.0 **** 0.06
25926 C 62.13784475899379 169.54854708702985 31.79335411215314 C 0.0 **** -0.24
25927 H 61.276328755483405 168.88568967948908 31.724391913024164 H 0.0 **** 0.06
25928 H 62.62728808845401 169.40898504171415 32.757437736936964 H 0.0 **** 0.06
25929 H 61.80869923239652 170.58372065726132 31.699788752920398 H 0.0 **** 0.06
25930 H 62.8397161046793 169.31623242017125 30.992972909245594 H 0.0 **** 0.06
25931 C 51.68063145139931 155.97323933674764 64.89214714398679 C 0.0 **** -0.24
25932 H 51.90436718944963 154.90746750542837 64.85912773191143 H 0.0 **** 0.06
25933 H 51.38039885718902 156.31181264528806 63.90013047042214 H 0.0 **** 0.06
25934 H 52.56682482567774 156.52115689723834 65.2117738255335 H 0.0 **** 0.06
25935 H 50.86883092168088 156.15181140261052 65.59782234825596 H 0.0 **** 0.06
25936 C 26.76853976537936 55.82794260757899 221.5840976647774 C 0.0 **** -0.24
25937 H 27.090846760440826 55.30840733472752 220.68222413638517 H 0.0 **** 0.06
25938 H 25.916179929692163 56.46621666386014 221.35190484419064 H 0.0 **** 0.06
25939 H 27.587776387947514 56.43921241149141 221.96372664161845 H 0.0 **** 0.06
25940 H 26.47980853825564 55.09789974842326 222.34072457299987 H 0.0 **** 0.06
25941 C 104.81335308269817 150.31793093706963 180.84940125235903 C 0.0 **** -0.24
25942 H 103.92683109026368 150.93460193170407 180.69956395478167 H 0.0 **** 0.06
25943 H 105.18763523168738 150.46175988083831 181.86285804702658 H 0.0 **** 0.06
25944 H 105.58162297985714 150.60605632533773 180.13279907411254 H 0.0 **** 0.06
25945 H 104.55455390922103 149.2691985449201 180.70295014073707 H 0.0 **** 0.06
25946 C 169.34662556883117 10.817809203828716 217.30245162693535 C 0.0 **** -0.24
25947 H 168.67271352582543 11.455364959943964 217.87468478310888 H 0.0 **** 0.06
25948 H 168.82369749604425 10.429053585849061 216.42953647970302 H 0.0 **** 0.06
25949 H 169.6790994256226 9.988650623182195 217.92665892231543 H 0.0 **** 0.06
25950 H 170.21085812971924 11.399738431020609 216.98051213754277 H 0.0 **** 0.06
25951 C 109.66708059118665 157.82119680428815 34.61512041679697 C 0.0 **** -0.24
25952 H 109.35615402442485 158.3554456165714 33.71805551767035 H 0.0 **** 0.06
25953 H 109.888464287652 156.78406555750388 34.36270685240791 H 0.0 **** 0.06
25954 H 108.86587243370192 157.85352273898033 35.35348488774211 H 0.0 **** 0.06
25955 H 110.5595743421596 158.2932653419857 35.027057036698096 H 0.0 **** 0.06
25956 C 168.57801229282524 80.18187795784726 143.02435268032488 C 0.0 **** -0.24
25957 H 168.56650358043558 79.22269662286939 142.50779457669705 H 0.0 **** 0.06
25958 H 167.55432190445492 80.51958008808404 143.18771985758295 H 0.0 **** 0.06
25959 H 169.11111782797843 80.91452170404554 142.41871566419414 H 0.0 **** 0.06
25960 H 169.08199880762746 80.07072659032119 143.98528220501308 H 0.0 **** 0.06
25961 C 138.06938568849796 2.8413742952382677 186.1963790524734 C 0.0 **** -0.24
25962 H 138.88812584954388 3.490730621586195 185.88639602222867 H 0.0 **** 0.06
25963 H 137.11996996851016 3.2828353907415107 185.89281610344136 H 0.0 **** 0.06
25964 H 138.08742985252144 2.726583542806992 187.28007783831578 H 0.0 **** 0.06
25965 H 138.18313512408372 1.8646772302477501 185.7256779993208 H 0.0 **** 0.06
25966 C 176.80165515391363 154.2435983552937 20.605179609795215 C 0.0 **** -0.24
25967 H 177.30191109906696 153.32679258703163 20.29282125125937 H 0.0 **** 0.06
25968 H 177.08270658468768 155.05662309997504 19.935492794544786 H 0.0 **** 0.06
25969 H 177.10138217125208 154.491672711554 21.623122826709988 H 0.0 **** 0.06
25970 H 175.72250982787625 154.09780509060133 20.569707814703435 H 0.0 **** 0.06
25971 C 221.19491883464562 136.65047366336054 27.95510249722136 C 0.0 **** -0.24
25972 H 220.3790232045628 136.0211927205591 27.599471529237974 H 0.0 **** 0.06
25973 H 221.57666585912835 137.25000904552311 27.12825359252929 H 0.0 **** 0.06
25974 H 221.99358194051405 136.02239772732287 28.349374519979733 H 0.0 **** 0.06
25975 H 220.82799907779523 137.308515216722 28.74290245713516 H 0.0 **** 0.06
25976 C 131.26478317363052 37.24285912669511 170.2784061003831 C 0.0 **** -0.24
25977 H 130.56198602766094 36.53460123959887 170.71585037618206 H 0.0 **** 0.06
25978 H 131.13805071439936 37.259639723730174 169.19587717908115 H 0.0 **** 0.06
25979 H 132.28339188325288 36.94125805165909 170.5216624535532 H 0.0 **** 0.06
25980 H 131.07455775445976 38.23787101727059 170.68120778890756 H 0.0 **** 0.06
25981 C 240.2591297398011 146.65101199401414 79.21811978173739 C 0.0 **** -0.24
25982 H 241.32553683586002 146.80958789080358 79.3808685661821 H 0.0 **** 0.06
25983 H 239.69093531391013 147.19989235115443 79.96816844896313 H 0.0 **** 0.06
25984 H 240.0345634899998 145.5876144229243 79.29713983188552 H 0.0 **** 0.06
25985 H 239.98752907176572 147.00647447623274 78.22373601383526 H 0.0 **** 0.06
25986 C 178.09202603223963 236.58261999162534 179.44665922408603 C 0.0 **** -0.24
25987 H 179.06040386476818 236.94717209123297 179.1062114393113 H 0.0 **** 0.06
25988 H 178.04122515073848 236.6479601824655 180.5335610135576 H 0.0 **** 0.06
25989 H 177.96690514601335 235.54367763238548 179.13857948564012 H 0.0 **** 0.06
25990 H 177.3010137099584 237.1894033667557 179.00740303647805 H 0.0 **** 0.06
25991 C 209.0959221102685 191.82712008711297 231.12605373713052 C 0.0 **** -0.24
25992 H 208.92023479939513 192.4410026547729 230.24259251436317 H 0.0 **** 0.06
25993 H 209.2600938864806 192.47218812258478 231.98933551539548 H 0.0 **** 0.06
25994 H 209.97589333396257 191.20395912315072 230.96467643530352 H 0.0 **** 0.06
25995 H 208.2287461320632 191.19277386369245 231.30510469245723 H 0.0 **** 0.06
25996 C 98.81646452537424 17.86952686850222 11.707510143821139 C 0.0 **** -0.24
25997 H 98.65731728320478 18.927830018043778 11.502502434652925 H 0.0 **** 0.06
25998 H 99.19747348613689 17.37841575552794 10.811318964800535 H 0.0 **** 0.06
25999 H 97.87158035566856 17.410370432299104 11.99881556044592 H 0.0 **** 0.06
26000 H 99.53874119409593 17.760693803283957 12.516504795098868 H 0.0 **** 0.06
26001 C 134.16352561005985 159.7664008848762 116.54077368908187 C 0.0 **** -0.24
26002 H 135.0631802889819 160.32421978008642 116.28028355347854 H 0.0 **** 0.06
26003 H 134.11061613065212 159.64766127718363 117.6236569124959 H 0.0 **** 0.06
26004 H 134.1949341428264 158.78474828089125 116.06843457932118 H 0.0 **** 0.06
26005 H 133.2858929579335 160.3098237883701 116.19063793637596 H 0.0 **** 0.06
26006 C 19.612509491177335 228.12928403845825 103.57572610342908 C 0.0 **** -0.24
26007 H 20.02807725579919 227.76012788750478 102.63751250880821 H 0.0 **** 0.06
26008 H 19.40932185119253 227.28852802447392 104.23900031280542 H 0.0 **** 0.06
26009 H 18.686077937795403 228.66712509882728 103.37614621290251 H 0.0 **** 0.06
26010 H 20.32738387614519 228.80176034764042 104.04984718073968 H 0.0 **** 0.06
26011 C 45.25184751995823 247.68408507274427 111.86410271191173 C 0.0 **** -0.24
26012 H 45.659521747395786 248.64745481056806 112.16955653249497 H 0.0 **** 0.06
26013 H 46.02672503578103 247.10687880047936 111.3592231938994 H 0.0 **** 0.06
26014 H 44.414653560169455 247.84278154379064 111.18569630318322 H 0.0 **** 0.06
26015 H 44.909241469968435 247.14019477721888 112.74405328109916 H 0.0 **** 0.06
26016 C 227.97383413403196 45.14591002088795 202.05886162736192 C 0.0 **** -0.24
26017 H 227.82150971804808 46.21807428901363 202.1792469047927 H 0.0 **** 0.06
26018 H 229.03542596090927 44.91714934157372 202.14830382114752 H 0.0 **** 0.06
26019 H 227.61599844762756 44.83622297069846 201.07625329498075 H 0.0 **** 0.06
26020 H 227.4199745243615 44.61251705730987 202.83166952853162 H 0.0 **** 0.06
26021 C 237.50598483470566 215.6230349028678 32.98072055676661 C 0.0 **** -0.24
26022 H 236.81889410192764 216.0248559037383 32.23487084387793 H 0.0 **** 0.06
26023 H 237.07315200396778 215.74247969027596 33.97380627804225 H 0.0 **** 0.06
26024 H 238.4528006004868 216.15997927044998 32.92918208325895 H 0.0 **** 0.06
26025 H 237.67686427622033 214.56428304363482 32.78308883636092 H 0.0 **** 0.06
26026 C 228.8048460235312 116.64117833702664 107.35905338326728 C 0.0 **** -0.24
26027 H 228.83656598287075 116.29529575172879 108.39256954529796 H 0.0 **** 0.06
26028 H 228.0840655457139 116.04401855798093 106.79823496803382 H 0.0 **** 0.06
26029 H 229.7928205076541 116.53436015479295 106.91035318173215 H 0.0 **** 0.06
26030 H 228.5061386215865 117.68862855972054 107.33467148316922 H 0.0 **** 0.06
26031 C 238.17478062623405 124.83679680195098 62.27495303035522 C 0.0 **** -0.24
26032 H 238.57531595389736 125.12644612887075 63.24589807391129 H 0.0 **** 0.06
26033 H 237.43681849404513 125.57162060477586 61.9520684593617 H 0.0 **** 0.06
26034 H 237.70232095415915 123.85779803821521 62.35500830850873 H 0.0 **** 0.06
26035 H 238.98466710283446 124.79132243594202 61.54683727963922 H 0.0 **** 0.06
26036 C 100.20946217709579 209.15636216649187 188.63902230373031 C 0.0 **** -0.24
26037 H 100.58072179448402 208.5175168509789 189.4405386985428 H 0.0 **** 0.06
26038 H 100.25716766175466 210.19851095978493 188.95410744112897 H 0.0 **** 0.06
26039 H 99.17672154662188 208.89168030990854 188.4136273896376 H 0.0 **** 0.06
26040 H 100.82338647482723 209.0163550810126 187.74983023639072 H 0.0 **** 0.06
26041 C 105.47005355775221 204.80604246426117 214.95591043931077 C 0.0 **** -0.24
26042 H 105.52198292234925 204.13883367440093 214.0957776955512 H 0.0 **** 0.06
26043 H 104.59346417140225 204.5574188001143 215.55451456122395 H 0.0 **** 0.06
26044 H 105.39440159076912 205.83710555312422 214.61222272587568 H 0.0 **** 0.06
26045 H 106.36878466510854 204.68894204382474 215.56119587141447 H 0.0 **** 0.06
26046 C 91.92106143343486 167.05512032144154 210.79842801955834 C 0.0 **** -0.24
26047 H 92.55310406522918 167.09868471349407 209.91090459234732 H 0.0 **** 0.06
26048 H 91.76316931604737 166.01353746459816 211.08115901680648 H 0.0 **** 0.06
26049 H 90.96023718439793 167.52285651934696 210.5826383423163 H 0.0 **** 0.06
26050 H 92.40760222898822 167.58474042897396 211.61687847930622 H 0.0 **** 0.06
26051 C 233.44441333051836 11.933544934270998 127.82482868533802 C 0.0 **** -0.24
26052 H 232.86585824197385 12.183200631970664 128.71325628181805 H 0.0 **** 0.06
26053 H 234.36391281809964 11.427366562829448 128.11993158991262 H 0.0 **** 0.06
26054 H 233.69085147794783 12.846636364629575 127.28268400802742 H 0.0 **** 0.06
26055 H 232.85817882923675 11.27733074791935 127.18219534350018 H 0.0 **** 0.06
26056 C 138.31715825691217 211.92711217253878 157.90829684719827 C 0.0 **** -0.24
26057 H 138.15436765376052 210.9074238424572 158.25643545734064 H 0.0 **** 0.06
26058 H 138.66402314801795 212.54325972032262 158.7387331964115 H 0.0 **** 0.06
26059 H 137.38229216083323 212.33275956527325 157.5204100689068 H 0.0 **** 0.06
26060 H 139.06803907421303 211.9258943019422 157.1187051324299 H 0.0 **** 0.06
26061 C 92.98107165463202 110.71015307346948 59.51880548420439 C 0.0 **** -0.24
26062 H 93.3938994346585 110.21712302107238 60.39943035855117 H 0.0 **** 0.06
26063 H 93.61915220613642 110.50811483916459 58.657705406432854 H 0.0 **** 0.06
26064 H 92.93401455198438 111.78507910107373 59.692429303496425 H 0.0 **** 0.06
26065 H 91.97846698725485 110.32854292455065 59.32626940343221 H 0.0 **** 0.06
26066 C 184.17092309610234 146.9437979889671 114.11928742304099 C 0.0 **** -0.24
26067 H 184.2064779836217 148.01545030686583 114.31511062915644 H 0.0 **** 0.06
26068 H 184.8482157674389 146.42693771085632 114.8002005401481 H 0.0 **** 0.06
26069 H 184.47424114961842 146.75149357031972 113.08989549419422 H 0.0 **** 0.06
26070 H 183.15486535500676 146.57991475452934 114.27296315440483 H 0.0 **** 0.06
26071 C 210.41199691163592 167.92324606830394 166.94079441814873 C 0.0 **** -0.24
26072 H 209.39826234444763 167.5281928234032 166.88461863924366 H 0.0 **** 0.06
26073 H 210.63940779778315 168.4711476109408 166.02617058243214 H 0.0 **** 0.06
26074 H 211.11662138446792 167.09985305369852 167.055323278416 H 0.0 **** 0.06
26075 H 210.4942987704977 168.59324323123994 167.79648464979164 H 0.0 **** 0.06
26076 C 57.70246393050138 57.794458405703125 175.028954350444 C 0.0 **** -0.24
26077 H 58.583992638476275 57.32577168617445 174.59134783022776 H 0.0 **** 0.06
26078 H 57.81155756225209 57.83171423004529 176.1128086540322 H 0.0 **** 0.06
26079 H 56.81724251735602 57.21427038170131 174.771518028132 H 0.0 **** 0.06
26080 H 57.598716148587016 58.80734733768253 174.6393340452013 H 0.0 **** 0.06
26081 C 127.2975723201233 77.93729256047817 39.748206201510854 C 0.0 **** -0.24
26082 H 127.6732426346635 77.04409563196774 39.24925868068769 H 0.0 **** 0.06
26083 H 127.58148767309157 77.91076807866042 40.80159555066055 H 0.0 **** 0.06
26084 H 126.21189810885829 77.9697494353785 39.66543777385996 H 0.0 **** 0.06
26085 H 127.725806731831 78.82290186950539 39.27869048319128 H 0.0 **** 0.06
26086 C 154.00472372177515 144.86085970779342 127.97562711064805 C 0.0 **** -0.24
26087 H 153.81780930311788 144.5850638068048 126.93758414701566 H 0.0 **** 0.06
26088 H 154.32864283499754 145.90003457053288 128.02342430678698 H 0.0 **** 0.06
26089 H 154.78232591403528 144.2177683302733 128.38726879427134 H 0.0 **** 0.06
26090 H 153.0880133450338 144.73938882714296 128.55381262770044 H 0.0 **** 0.06
26091 C 197.36050166513905 181.93798779307656 200.46336710326113 C 0.0 **** -0.24
26092 H 197.68649675272428 182.7140010550357 201.1562943679883 H 0.0 **** 0.06
26093 H 196.74329670805184 182.38427752847315 199.6835972124499 H 0.0 **** 0.06
26094 H 196.78066328999734 181.1896409606769 201.00298459703106 H 0.0 **** 0.06
26095 H 198.23284846109416 181.4659129837891 200.01147219225885 H 0.0 **** 0.06
26096 C 41.541678388644385 125.7525208705151 118.48586500592188 C 0.0 **** -0.24
26097 H 42.48551391639077 125.22933086816062 118.63879402696233 H 0.0 **** 0.06
26098 H 41.72180778669863 126.67398066898869 117.93252441904278 H 0.0 **** 0.06
26099 H 41.097429641527896 125.98935948506158 119.45295088435307 H 0.0 **** 0.06
26100 H 40.86129633021264 125.11540285936081 117.91991052575796 H 0.0 **** 0.06
26101 C 87.21726347407116 27.430331800636353 117.2828345116547 C 0.0 **** -0.24
26102 H 86.32819440493873 28.0617191679232 117.28995925324196 H 0.0 **** 0.06
26103 H 88.04244604954516 27.970365950886872 116.81891706249496 H 0.0 **** 0.06
26104 H 87.01219726631135 26.52152827683301 116.71624419815168 H 0.0 **** 0.06
26105 H 87.48348198395138 27.167888236744318 118.30692027647027 H 0.0 **** 0.06
26106 C 86.65749394540649 217.08800434070054 95.06316183348332 C 0.0 **** -0.24
26107 H 87.42180956392221 216.8228387362061 95.79338741699846 H 0.0 **** 0.06
26108 H 86.64895719619153 218.1690894447867 94.92212390737788 H 0.0 **** 0.06
26109 H 85.68185727667034 216.7607128144199 95.42355873135259 H 0.0 **** 0.06
26110 H 86.87664774710544 216.59828232549378 94.11472073293896 H 0.0 **** 0.06
26111 C 73.4399065206874 29.248271181087475 51.70020356131677 C 0.0 **** -0.24
26112 H 73.98463078218535 29.202914888873636 52.64387822264892 H 0.0 **** 0.06
26113 H 73.2299302328839 28.23603046882144 51.35345253194485 H 0.0 **** 0.06
26114 H 74.04412854273082 29.768593549961608 50.95736243092361 H 0.0 **** 0.06
26115 H 72.50213993308361 29.784638318373112 51.846974455832736 H 0.0 **** 0.06
26116 C 223.3031033565157 117.61990754517367 119.09574805282372 C 0.0 **** -0.24
26117 H 222.2928430573887 117.2203358283733 119.18325884431127 H 0.0 **** 0.06
26118 H 223.98665968705242 116.81935579562423 118.81091613815158 H 0.0 **** 0.06
26119 H 223.6117457333736 118.03812507789564 120.05325499102733 H 0.0 **** 0.06
26120 H 223.32039568068353 118.40117998083036 118.33547906646041 H 0.0 **** 0.06
26121 C 73.38880289770611 96.1279742464603 160.02505767561493 C 0.0 **** -0.24
26122 H 74.34962897652323 95.71784872971662 159.71372525210623 H 0.0 **** 0.06
26123 H 73.50234718144358 97.18820240960372 160.2499765532641 H 0.0 **** 0.06
26124 H 73.04093564573606 95.6029694690385 160.9146687857235 H 0.0 **** 0.06
26125 H 72.66275971191791 96.00202815475222 159.22212278439278 H 0.0 **** 0.06
26126 C 205.39388183099996 82.68592889075657 45.471723059799814 C 0.0 **** -0.24
26127 H 205.45468191218876 82.88011822994557 46.54233476111088 H 0.0 **** 0.06
26128 H 204.5057256669586 82.08977576047357 45.260550974745826 H 0.0 **** 0.06
26129 H 206.2819789897564 82.14212771410834 45.150381680601825 H 0.0 **** 0.06
26130 H 205.33219494809896 83.63274336767384 44.9336880611051 H 0.0 **** 0.06
26131 C 211.71229875744362 60.4101333377412 151.69192700232873 C 0.0 **** -0.24
26132 H 210.88288270877894 60.015628013277876 152.27823078757754 H 0.0 **** 0.06
26133 H 211.3364352135288 60.793814005613115 150.74287625499358 H 0.0 **** 0.06
26134 H 212.43263471789163 59.61388818589768 151.50165261896566 H 0.0 **** 0.06
26135 H 212.1967410761125 61.215222129273315 152.24404043504538 H 0.0 **** 0.06
26136 C 17.14686411616988 246.0619339796103 157.31782079999758 C 0.0 **** -0.24
26137 H 16.087729476696737 246.18442113170627 157.54306350522987 H 0.0 **** 0.06
26138 H 17.265678426926357 245.32428608940688 156.52318859950032 H 0.0 **** 0.06
26139 H 17.67098100076062 245.72150057296005 158.21061425416244 H 0.0 **** 0.06
26140 H 17.562131636107523 247.01610086728743 156.99412186253485 H 0.0 **** 0.06
26141 C 215.366070933701 174.86281907294327 121.83900606343786 C 0.0 **** -0.24
26142 H 215.15807954543232 174.16504133842827 122.65057823613776 H 0.0 **** 0.06
26143 H 215.57895221315306 174.30454645563054 120.92745858099221 H 0.0 **** 0.06
26144 H 216.2294828864483 175.47531918874313 122.10032767575842 H 0.0 **** 0.06
26145 H 214.49994524343737 175.50377399740086 121.68021492980967 H 0.0 **** 0.06
26146 C 187.23093295287737 37.02645510117625 125.75643119335206 C 0.0 **** -0.24
26147 H 186.39033295847986 37.51152151767755 125.26169209437901 H 0.0 **** 0.06
26148 H 187.56091290269933 37.63840709296201 126.59677729803025 H 0.0 **** 0.06
26149 H 188.05129874145467 36.91054490516862 125.04711435110653 H 0.0 **** 0.06
26150 H 186.9227410109339 36.04587989914208 126.11862391159448 H 0.0 **** 0.06
26151 C 175.58095189169308 24.760157668412432 203.65371523775946 C 0.0 **** -0.24
26152 H 176.20450841152345 24.658171405931242 204.5413162898882 H 0.0 **** 0.06
26153 H 176.10599014125393 24.345440975312272 202.79216344722255 H 0.0 **** 0.06
26154 H 175.37002384962017 25.815608029484594 203.4770673373974 H 0.0 **** 0.06
26155 H 174.64541109374574 24.222540892114353 203.80252441024732 H 0.0 **** 0.06
26156 C 141.88169726972254 85.19544969688599 136.75390480679854 C 0.0 **** -0.24
26157 H 141.86166189535987 86.07383027874252 136.10808152184458 H 0.0 **** 0.06
26158 H 141.05837790351833 84.53189398010892 136.48894518049585 H 0.0 **** 0.06
26159 H 141.7772567492022 85.50716374970878 137.79342589922473 H 0.0 **** 0.06
26160 H 142.82849972393458 84.67114953667803 136.62521517374975 H 0.0 **** 0.06
26161 C 177.76606020704182 182.32041878208412 211.72968463908285 C 0.0 **** -0.24
26162 H 177.8921401393451 181.33736268296428 211.27666574317487 H 0.0 **** 0.06
26163 H 177.66598390552213 183.0707250445534 210.94512373042113 H 0.0 **** 0.06
26164 H 178.63642560123694 182.55091339904558 212.34434624093865 H 0.0 **** 0.06
26165 H 176.8718441896247 182.32139205554995 212.35129087753631 H 0.0 **** 0.06
26166 C 229.69330811881852 54.28429090457635 77.16696474976109 C 0.0 **** -0.24
26167 H 228.68642144334714 54.53119010400994 77.50613077664445 H 0.0 **** 0.06
26168 H 230.23504405499457 55.20300123346894 76.94050044172528 H 0.0 **** 0.06
26169 H 229.63324086341606 53.667171287238006 76.27070035339423 H 0.0 **** 0.06
26170 H 230.2168005902848 53.73716901819253 77.95091617777643 H 0.0 **** 0.06
26171 C 158.56774113396472 50.27263900806294 82.09026083577379 C 0.0 **** -0.24
26172 H 158.684761466442 50.14225388705239 83.16677490693723 H 0.0 **** 0.06
26173 H 158.05107509351308 51.21255254923615 81.89288981755374 H 0.0 **** 0.06
26174 H 157.98330650226643 49.44567675566765 81.68646984145809 H 0.0 **** 0.06
26175 H 159.5494276553847 50.28986377617986 81.61825931320868 H 0.0 **** 0.06
26176 C 115.68103761400474 187.1322717026673 246.74717411189266 C 0.0 **** -0.24
26177 H 116.23493231334837 187.5208670184433 247.60063875275176 H 0.0 **** 0.06
26178 H 115.2505452209115 187.96130546985086 246.18507813611228 H 0.0 **** 0.06
26179 H 114.88316779289411 186.47803432950934 247.09955144359384 H 0.0 **** 0.06
26180 H 116.35586878055241 186.56751332928206 246.1034253629092 H 0.0 **** 0.06
26181 C 36.479624204583246 33.2346016672316 94.26051542833062 C 0.0 **** -0.24
26182 H 36.5862402874632 33.25622093292377 95.34515877480803 H 0.0 **** 0.06
26183 H 37.17526636657428 33.94471615123746 93.81208262119904 H 0.0 **** 0.06
26184 H 35.45871261705642 33.506371348416096 93.99044442063953 H 0.0 **** 0.06
26185 H 36.69725214299791 32.23130940564609 93.89342512165223 H 0.0 **** 0.06
26186 C 139.13828711007386 52.56855363310066 45.92016618386742 C 0.0 **** -0.24
26187 H 138.55639217910698 51.81427390754382 45.389744689565774 H 0.0 **** 0.06
26188 H 139.95689995587722 52.908552715234435 45.28436572770353 H 0.0 **** 0.06
26189 H 139.54333112824284 52.13741013902043 46.835473343409475 H 0.0 **** 0.06
26190 H 138.4964802618941 53.41347364268657 46.16942451263222 H 0.0 **** 0.06
26191 C 90.45283754487016 46.93907738666114 212.3734570812784 C 0.0 **** -0.24
26192 H 89.92667104181157 46.281228995710336 211.6808143978019 H 0.0 **** 0.06
26193 H 90.546990023131 46.445650964035295 213.34126452800712 H 0.0 **** 0.06
26194 H 89.89195107119286 47.86578768032413 212.4911853955167 H 0.0 **** 0.06
26195 H 91.4445704997658 47.161590972838056 211.97990782452644 H 0.0 **** 0.06
26196 C 66.87616442472114 144.2439675295028 153.68598275609608 C 0.0 **** -0.24
26197 H 67.54535816890294 145.03907491975423 153.3577823049131 H 0.0 **** 0.06
26198 H 66.80635127507927 143.48345659622734 152.90782864532937 H 0.0 **** 0.06
26199 H 65.8874988842498 144.65911318622275 153.87990824468892 H 0.0 **** 0.06
26200 H 67.26730179161109 143.7950390085863 154.59936401224448 H 0.0 **** 0.06
26201 C 193.92620609939917 61.95621474984668 134.31579695283273 C 0.0 **** -0.24
26202 H 193.29404620430162 62.0278413972008 135.2014927642099 H 0.0 **** 0.06
26203 H 194.97389201431486 61.96394042820509 134.6159754061083 H 0.0 **** 0.06
26204 H 193.72920021349918 62.80438999739883 133.66052907294764 H 0.0 **** 0.06
26205 H 193.70531805808116 61.02925786125729 133.78720735534242 H 0.0 **** 0.06
26206 C 211.93981112721443 20.04377755676373 144.0122835266488 C 0.0 **** -0.24
26207 H 212.66516011664095 19.782045752245864 143.24213362447776 H 0.0 **** 0.06
26208 H 212.43036477920214 20.04915234211822 144.9858130837046 H 0.0 **** 0.06
26209 H 211.13326923510957 19.311270438499633 144.0145323228144 H 0.0 **** 0.06
26210 H 211.53161269922842 21.033824185065072 143.80515481789993 H 0.0 **** 0.06
26211 C 222.38355152568258 68.73787300657037 169.97038979433316 C 0.0 **** -0.24
26212 H 221.44646951997285 68.2241231906547 170.18374162861727 H 0.0 **** 0.06
26213 H 222.29796930889702 69.27304932461078 169.02463424309428 H 0.0 **** 0.06
26214 H 223.19041814336438 68.00708083646825 169.90322842866433 H 0.0 **** 0.06
26215 H 222.59975345939014 69.44515126365062 170.7711711385722 H 0.0 **** 0.06
26216 C 7.648126616515555 173.73492585373688 51.38647410946936 C 0.0 **** -0.24
26217 H 7.967022779236885 174.27249321759516 52.28005742741502 H 0.0 **** 0.06
26218 H 8.21029962402585 172.80566843701547 51.30205421642927 H 0.0 **** 0.06
26219 H 7.831306761103264 174.35265528397414 50.506967452137786 H 0.0 **** 0.06
26220 H 6.58403550830775 173.51146531559036 51.45889692503107 H 0.0 **** 0.06
26221 C 231.20082588127022 102.74235837866277 39.62557929282319 C 0.0 **** -0.24
26222 H 230.14084231462505 102.77754918055669 39.3744677387258 H 0.0 **** 0.06
26223 H 231.67630811625946 103.67611996130515 39.32572179640988 H 0.0 **** 0.06
26224 H 231.67097823302288 101.9100658867178 39.101497671227094 H 0.0 **** 0.06
26225 H 231.31448731349332 102.60542867481112 40.701304123523286 H 0.0 **** 0.06
26226 C 15.315003496917967 22.070696654939184 70.09570739145528 C 0.0 **** -0.24
26227 H 14.547507582954267 21.29808252527718 70.14216164981525 H 0.0 **** 0.06
26228 H 15.559676329627536 22.277576730138293 69.05442529851376 H 0.0 **** 0.06
26229 H 16.207894914373668 21.72629592902271 70.61746368094094 H 0.0 **** 0.06
26230 H 14.944989418813378 22.979369668026607 70.57074371411332 H 0.0 **** 0.06
26231 C 211.1566709776418 142.05698405297593 34.4340124195121 C 0.0 **** -0.24
26232 H 211.38928395373537 141.33172909737013 35.21294053519998 H 0.0 **** 0.06
26233 H 210.83019285899417 141.53344769194652 33.535551911810984 H 0.0 **** 0.06
26234 H 212.0466333483 142.64540592052245 34.20876086566531 H 0.0 **** 0.06
26235 H 210.36252351032687 142.71835960779447 34.77922791237128 H 0.0 **** 0.06
26236 C 205.95937970973776 105.74513494370817 97.83958357724597 C 0.0 **** -0.24
26237 H 205.7094561424572 104.71234761324331 97.59509202883058 H 0.0 **** 0.06
26238 H 205.7581284155473 105.92729820177456 98.89505315480187 H 0.0 **** 0.06
26239 H 205.35495118712964 106.41804547517549 97.23276224445917 H 0.0 **** 0.06
26240 H 207.01589853582948 105.92057662979892 97.63540042468074 H 0.0 **** 0.06
26241 C 33.14627642677536 122.57586087700241 172.93063620764778 C 0.0 **** -0.24
26242 H 33.40260043131566 121.9113985451678 172.10439144926607 H 0.0 **** 0.06
26243 H 32.42839628820924 122.08051636930355 173.58484756517595 H 0.0 **** 0.06
26244 H 32.707640857400946 123.49201839267252 172.53707833577883 H 0.0 **** 0.06
26245 H 34.04713918793732 122.81715188672635 173.49481747547648 H 0.0 **** 0.06
26246 C 135.20273316677225 226.44647118060126 235.6239200337635 C 0.0 **** -0.24
26247 H 136.26315019664736 226.26971412474083 235.80336984101785 H 0.0 **** 0.06
26248 H 134.92339622126696 226.02589487086308 234.65675250470093 H 0.0 **** 0.06
26249 H 135.00822052509494 227.5187086964841 235.62424441886444 H 0.0 **** 0.06
26250 H 134.61681647420647 225.96994436510656 236.4095976955854 H 0.0 **** 0.06
26251 C 27.72571869165708 100.98005504682217 208.58341481897355 C 0.0 **** -0.24
26252 H 27.206923447941875 100.84576054214872 207.6346382156884 H 0.0 **** 0.06
26253 H 27.71737944143976 100.04179104986227 209.13856227937325 H 0.0 **** 0.06
26254 H 27.22292522907216 101.75207809624303 209.16600534023527 H 0.0 **** 0.06
26255 H 28.75575008753063 101.28146931147629 208.39296447511592 H 0.0 **** 0.06
26256 C 33.60577003437011 62.739084229664144 173.5037127498854 C 0.0 **** -0.24
26257 H 32.5566234589332 62.889479288663296 173.25024410610456 H 0.0 **** 0.06
26258 H 33.75364412185522 61.71586306847374 173.84881603450862 H 0.0 **** 0.06
26259 H 33.891489688486544 63.434946238228946 174.2934367062007 H 0.0 **** 0.06
26260 H 34.22084620555175 62.918835860693235 172.62230409433693 H 0.0 **** 0.06
26261 C 105.7483402917027 77.07776582600914 154.57944282546816 C 0.0 **** -0.24
26262 H 104.8306609997322 76.57554163395216 154.27351449132257 H 0.0 **** 0.06
26263 H 106.12163006339861 77.68610378994273 153.75527764630232 H 0.0 **** 0.06
26264 H 106.49696011755802 76.3332752821805 154.84987905255412 H 0.0 **** 0.06
26265 H 105.54323431326694 77.71593282648092 155.43866513731032 H 0.0 **** 0.06
26266 C 101.18549170800989 113.9540096971516 68.04623234491714 C 0.0 **** -0.24
26267 H 100.429391649665 113.17531118553802 68.14387400543526 H 0.0 **** 0.06
26268 H 101.12391315505963 114.39803549391999 67.0521363972633 H 0.0 **** 0.06
26269 H 102.17456319420407 113.5197092487922 68.18997266401072 H 0.0 **** 0.06
26270 H 101.01276492721564 114.72407600891961 68.79910678256385 H 0.0 **** 0.06
26271 C 188.37702541764472 19.7838065022012 123.02233808743853 C 0.0 **** -0.24
26272 H 187.32426221216355 19.628469224867587 122.78610825466538 H 0.0 **** 0.06
26273 H 188.62900768889298 19.24074840947074 123.93338880778668 H 0.0 **** 0.06
26274 H 188.56327035573253 20.84721727568214 123.16956210107384 H 0.0 **** 0.06
26275 H 188.99175933860784 19.418047396205708 122.19965463945752 H 0.0 **** 0.06
26276 C 97.8447069995079 122.65334192038515 5.21027770960761 C 0.0 **** -0.24
26277 H 97.44743659453857 121.84558425036187 5.824727331949148 H 0.0 **** 0.06
26278 H 97.98479012870709 123.5419849302011 5.825591357514568 H 0.0 **** 0.06
26279 H 97.1446197173249 122.87494766341456 4.4050154809471564 H 0.0 **** 0.06
26280 H 98.80269298089647 122.35043921114814 4.786927519819315 H 0.0 **** 0.06
26281 C 68.8385677274612 174.0007315843756 31.62722090864085 C 0.0 **** -0.24
26282 H 69.59874774178695 173.48415564663046 31.041950708420842 H 0.0 **** 0.06
26283 H 67.88120474573896 173.9458936983511 31.108523018373575 H 0.0 **** 0.06
26284 H 69.12407115679827 175.04424379768798 31.75383688543181 H 0.0 **** 0.06
26285 H 68.74819534814233 173.52650562106496 32.605086006327355 H 0.0 **** 0.06
26286 C 129.90520405805148 112.20335343918208 87.64180648617162 C 0.0 **** -0.24
26287 H 130.63917445202932 111.53526594702407 87.19006857260638 H 0.0 **** 0.06
26288 H 129.63537047603776 112.98120417288595 86.92736709410991 H 0.0 **** 0.06
26289 H 130.33254948898863 112.66144992276924 88.53384631964164 H 0.0 **** 0.06
26290 H 129.01679867288408 111.63504576528538 87.914789663954 H 0.0 **** 0.06
26291 C 101.68700020773358 148.97585602778977 138.88440175058264 C 0.0 **** -0.24
26292 H 101.55857379318391 149.82026403311198 138.20652391885892 H 0.0 **** 0.06
26293 H 102.68544518995392 148.55793102524882 138.75770181390456 H 0.0 **** 0.06
26294 H 100.94237013021683 148.2124640596792 138.65947883690637 H 0.0 **** 0.06
26295 H 101.561767224931 149.31456746273585 139.91304981334662 H 0.0 **** 0.06
26296 C 144.2349335944271 188.66792601233945 203.15800930743023 C 0.0 **** -0.24
26297 H 143.41062923221244 188.37225016936597 202.5080964710296 H 0.0 **** 0.06
26298 H 145.17531896559217 188.58114739944014 202.61379391409235 H 0.0 **** 0.06
26299 H 144.2583176202578 188.01770084200678 204.0313574422124 H 0.0 **** 0.06
26300 H 144.0921546735084 189.70044662104596 203.4770593710495 H 0.0 **** 0.06
26301 C 157.9286696318379 200.29595746478796 113.5156896094982 C 0.0 **** -0.24
26302 H 157.4421987010961 200.57125695597728 114.45146137272104 H 0.0 **** 0.06
26303 H 158.96309699744907 200.63940644759197 113.52981021340753 H 0.0 **** 0.06
26304 H 157.40225536037607 200.76141916006884 112.68237694620674 H 0.0 **** 0.06
26305 H 157.90622240897423 199.21275946395247 113.39950538246757 H 0.0 **** 0.06
26306 C 99.51584386600692 158.28368060654338 92.5981319955508 C 0.0 **** -0.24
26307 H 98.68316346599559 158.9628365947395 92.78212674466943 H 0.0 **** 0.06
26308 H 100.31092338575971 158.81702266235274 92.07674118124143 H 0.0 **** 0.06
26309 H 99.17414221300336 157.44973387857638 91.9841894782694 H 0.0 **** 0.06
26310 H 99.89260831137156 157.905415164086 93.54789689642956 H 0.0 **** 0.06
26311 C 224.57403412645067 5.553723395446696 62.457249966819546 C 0.0 **** -0.24
26312 H 223.68582369805506 6.171506651804265 62.329095211358464 H 0.0 **** 0.06
26313 H 225.46544692186262 6.168611678030118 62.33124916592641 H 0.0 **** 0.06
26314 H 224.57257024766758 4.757158346627904 61.71215496313357 H 0.0 **** 0.06
26315 H 224.57190299208003 5.1163334811610355 63.4560548017173 H 0.0 **** 0.06
26316 C 8.535503889272917 184.90082491253509 209.74992185583608 C 0.0 **** -0.24
26317 H 7.472480279155121 185.11216550601046 209.64024271739143 H 0.0 **** 0.06
26318 H 8.769912587698997 183.95451947211063 209.26164411528143 H 0.0 **** 0.06
26319 H 8.78608532564246 184.83671156693669 210.80846518750806 H 0.0 **** 0.06
26320 H 9.114262393094151 185.7012851684815 209.2877340652463 H 0.0 **** 0.06
26321 C 233.0272154998741 77.30451907641495 182.64843343606998 C 0.0 **** -0.24
26322 H 233.82107971491658 78.04323421199899 182.7578963231149 H 0.0 **** 0.06
26323 H 233.37602416358297 76.33859255591071 183.0143105281313 H 0.0 **** 0.06
26324 H 232.75488453165894 77.21832416563566 181.5967020794215 H 0.0 **** 0.06
26325 H 232.1572587433241 77.61909538409984 183.2241300130396 H 0.0 **** 0.06
26326 C 209.01426279473557 216.3252632967795 101.05758213091048 C 0.0 **** -0.24
26327 H 208.6402581472623 215.4883334276819 101.64731977352733 H 0.0 **** 0.06
26328 H 208.30333067919779 217.15026794569877 101.1051155664702 H 0.0 **** 0.06
26329 H 209.13787535657897 216.01232349828894 100.02048223562596 H 0.0 **** 0.06
26330 H 209.97531574668605 216.64973366289405 101.45608027424214 H 0.0 **** 0.06
26331 C 188.33311913995058 214.52610410113374 103.98623721719969 C 0.0 **** -0.24
26332 H 187.62070806906513 215.15288980098603 104.52432897462947 H 0.0 **** 0.06
26333 H 189.3239598991617 214.64550398344232 104.42555809767589 H 0.0 **** 0.06
26334 H 188.36105406772472 214.82494870414067 102.93907338193736 H 0.0 **** 0.06
26335 H 188.02657354848054 213.4828663495583 104.05969713337404 H 0.0 **** 0.06
26336 C 50.3183998837749 8.915073342663291 132.18931860167456 C 0.0 **** -0.24
26337 H 50.248253109796224 9.361795735505765 131.19754438198626 H 0.0 **** 0.06
26338 H 50.26190613568579 7.829021578894711 132.10174226942328 H 0.0 **** 0.06
26339 H 49.49539256508578 9.272824620532859 132.80730770934363 H 0.0 **** 0.06
26340 H 51.26617652187541 9.193911240462242 132.64736490721603 H 0.0 **** 0.06
26341 C 225.92294945818313 198.27361068855558 47.28124511032789 C 0.0 **** -0.24
26342 H 225.80887911540847 198.60426734796346 48.31426530031533 H 0.0 **** 0.06
26343 H 226.9587365545424 197.98316726794738 47.10569945024403 H 0.0 **** 0.06
26344 H 225.65434898170324 199.08853263180384 46.6078888936087 H 0.0 **** 0.06
26345 H 225.26934924477513 197.4210209021592 47.098639032002524 H 0.0 **** 0.06
26346 C 197.93954906950006 134.75094407911354 151.59906511756282 C 0.0 **** -0.24
26347 H 198.43809357920676 135.11806684856688 152.49556431034745 H 0.0 **** 0.06
26348 H 198.53221565310037 135.00975632430058 150.72138401605295 H 0.0 **** 0.06
26349 H 196.95284128355115 135.20925180282524 151.51924429849444 H 0.0 **** 0.06
26350 H 197.83298589495834 133.6679116313402 151.66060840277783 H 0.0 **** 0.06
26351 C 180.76322551721915 59.2003701940416 42.40903924782734 C 0.0 **** -0.24
26352 H 180.7971452355393 60.256593677478634 42.143884642547334 H 0.0 **** 0.06
26353 H 181.70149744228252 58.91503240073908 42.88458178594021 H 0.0 **** 0.06
26354 H 180.61473421996646 58.60352523027282 41.50903758415552 H 0.0 **** 0.06
26355 H 179.9381821611566 59.02696645364361 43.100599933114864 H 0.0 **** 0.06
26356 C 92.21830707493939 32.59245319512557 31.962325220402676 C 0.0 **** -0.24
26357 H 92.67971308317311 31.660724962275566 31.6374982674362 H 0.0 **** 0.06
26358 H 92.3140531403491 33.33938612950078 31.173936701512076 H 0.0 **** 0.06
26359 H 92.71825043993366 32.94941129712751 32.86347511205631 H 0.0 **** 0.06
26360 H 91.16313626342006 32.42114408422577 32.17564263037801 H 0.0 **** 0.06
26361 C 40.77371222963441 190.23013532955775 231.25507425520397 C 0.0 **** -0.24
26362 H 41.330724135184724 189.34743898691067 230.94007349640322 H 0.0 **** 0.06
26363 H 41.407357132461485 190.85391930339648 231.8848561632752 H 0.0 **** 0.06
26364 H 39.891860147085765 189.9222697956202 231.81637299982174 H 0.0 **** 0.06
26365 H 40.464894085303825 190.79593930967343 230.37615686553735 H 0.0 **** 0.06
26366 C 68.48820583712137 183.09189439802958 117.4389833668709 C 0.0 **** -0.24
26367 H 68.38387795851807 183.90450554548306 116.71974182886566 H 0.0 **** 0.06
26368 H 68.36920088185133 183.48419698300762 118.44911111849484 H 0.0 **** 0.06
26369 H 69.47550175220672 182.64139902326787 117.3373454717875 H 0.0 **** 0.06
26370 H 67.72323730763671 182.3384434165248 117.24950423108868 H 0.0 **** 0.06
26371 C 28.663448788608633 207.37865103801462 195.51019099324907 C 0.0 **** -0.24
26372 H 29.651750364701044 206.93455581518333 195.6248992633246 H 0.0 **** 0.06
26373 H 28.466190203105967 208.04791191708134 196.3483404471424 H 0.0 **** 0.06
26374 H 27.911139426578032 206.58977117717916 195.49032232954517 H 0.0 **** 0.06
26375 H 28.624310486372522 207.94152273861462 194.5775575113335 H 0.0 **** 0.06
26376 C 206.3750929649876 88.57637838269252 91.95722803137417 C 0.0 **** -0.24
26377 H 207.4137837104207 88.3233696730722 92.16947716728208 H 0.0 **** 0.06
26378 H 205.90772951417668 87.7593215514346 91.40644484284974 H 0.0 **** 0.06
26379 H 206.33789204872787 89.48640387131877 91.35841648258548 H 0.0 **** 0.06
26380 H 205.840706497787 88.73561930412706 92.89403164249319 H 0.0 **** 0.06
26381 C 190.73044964808295 231.04901374147101 9.166342023167246 C 0.0 **** -0.24
26382 H 189.99404781278437 230.3193375327071 8.830011034754577 H 0.0 **** 0.06
26383 H 191.61983875772304 230.9829113238003 8.540337995292546 H 0.0 **** 0.06
26384 H 190.9977223657597 230.8422796431452 10.202787332314017 H 0.0 **** 0.06
26385 H 190.30747609079154 232.05038663349058 9.093388208671442 H 0.0 **** 0.06
26386 C 65.07629105094682 14.985752617940676 65.95539509725478 C 0.0 **** -0.24
26387 H 64.45660034208598 14.715815139618229 66.80992522690735 H 0.0 **** 0.06
26388 H 64.55866537539637 15.732286102724714 65.35212401747668 H 0.0 **** 0.06
26389 H 65.26786633084882 14.099303961359198 65.35168303897805 H 0.0 **** 0.06
26390 H 66.02236511633856 15.396772967747296 66.3085731118411 H 0.0 **** 0.06
26391 C 186.73889227409583 163.91669183888794 133.89042216160405 C 0.0 **** -0.24
26392 H 187.30467065302574 163.0780132470163 133.48194004895194 H 0.0 **** 0.06
26393 H 187.39112850800223 164.78575061930317 133.97654591163152 H 0.0 **** 0.06
26394 H 186.35581229213344 163.6496081877494 134.8752163623537 H 0.0 **** 0.06
26395 H 185.90632973649426 164.1500379690536 133.22766748495488 H 0.0 **** 0.06
26396 C 177.04399322360024 80.56032021521699 218.60383028146396 C 0.0 **** -0.24
26397 H 177.89223130593678 81.23670260032867 218.70329676866265 H 0.0 **** 0.06
26398 H 176.83479102581634 80.09684404665128 219.56834148306794 H 0.0 **** 0.06
26399 H 177.2799685826515 79.786676994219 217.87325765397247 H 0.0 **** 0.06
26400 H 176.16897493999477 81.11901348686291 218.2717754664562 H 0.0 **** 0.06
26401 C 190.4630582950477 37.49838028830267 80.0381568052758 C 0.0 **** -0.24
26402 H 190.52246994656736 36.41443079256939 80.1372845882845 H 0.0 **** 0.06
26403 H 189.45472774333285 37.779607580129635 79.7347193721395 H 0.0 **** 0.06
26404 H 191.1759524225111 37.833125836701825 79.28443473945279 H 0.0 **** 0.06
26405 H 190.69899726631164 37.96441175697292 80.99413694520356 H 0.0 **** 0.06
26406 C 89.67924067123235 238.18171867287504 232.78335106339725 C 0.0 **** -0.24
26407 H 90.57691861786864 238.70006757396396 233.12183341071994 H 0.0 **** 0.06
26408 H 89.05583906092855 237.93730416941185 233.64329847436488 H 0.0 **** 0.06
26409 H 89.96260452906446 237.2642236223944 232.2674340865207 H 0.0 **** 0.06
26410 H 89.12342738281279 238.82525961679056 232.10246987181588 H 0.0 **** 0.06
26411 C 65.85917786380205 162.46333688441803 171.33022867120127 C 0.0 **** -0.24
26412 H 65.90211621442742 163.5521743463397 171.32407706598428 H 0.0 **** 0.06
26413 H 64.84532750020529 162.13971114790516 171.09272203752562 H 0.0 **** 0.06
26414 H 66.13723443147074 162.094732851199 172.31749316398634 H 0.0 **** 0.06
26415 H 66.55051094130604 162.06834727122418 170.58636891122234 H 0.0 **** 0.06
26416 C 56.75520090011858 118.10078362339763 110.7703019350435 C 0.0 **** -0.24
26417 H 57.78636509306696 117.9159895022658 111.07119412151707 H 0.0 **** 0.06
26418 H 56.73315840174209 118.415009155002 109.72610605931797 H 0.0 **** 0.06
26419 H 56.32977163229177 118.88597584561225 111.39537127722122 H 0.0 **** 0.06
26420 H 56.17298473450214 117.18775738486084 110.88801759753483 H 0.0 **** 0.06
26421 C 87.25331474294083 108.1596394101903 198.90070980023503 C 0.0 **** -0.24
26422 H 86.77714585317517 107.26412239697171 199.2992948365847 H 0.0 **** 0.06
26423 H 87.79105947851744 108.67138641559626 199.69881453654563 H 0.0 **** 0.06
26424 H 86.49279439173318 108.82316467724985 198.49042139724622 H 0.0 **** 0.06
26425 H 87.95292372792747 107.87821938269497 198.11263897796505 H 0.0 **** 0.06
26426 C 221.68400696842824 50.65859530370501 200.53370810029935 C 0.0 **** -0.24
26427 H 221.36277370124378 50.887217943004316 201.54978016642502 H 0.0 **** 0.06
26428 H 220.9671635371468 51.072737366702256 199.82463235232734 H 0.0 **** 0.06
26429 H 221.73853418394708 49.57718760439792 200.40532684215702 H 0.0 **** 0.06
26430 H 222.66614865175683 51.095502295294736 200.35515962933232 H 0.0 **** 0.06
26431 C 171.85488370377993 58.57958797384296 70.65369246305451 C 0.0 **** -0.24
26432 H 172.07491840221692 59.55185629349637 70.21191692868226 H 0.0 **** 0.06
26433 H 170.8376059713886 58.57997136628583 71.04468790245491 H 0.0 **** 0.06
26434 H 172.5562369194408 58.38193151036202 71.46416464377486 H 0.0 **** 0.06
26435 H 171.9522639012954 57.80513541714137 69.89330447179933 H 0.0 **** 0.06
26436 C 246.5199182698426 81.93655674631512 20.424627509812396 C 0.0 **** -0.24
26437 H 247.06269229246533 82.02391346801616 21.366258934735455 H 0.0 **** 0.06
26438 H 245.6835057595468 81.2489704597642 20.55032468872271 H 0.0 **** 0.06
26439 H 247.18939040575125 81.55705219749294 19.65267613443787 H 0.0 **** 0.06
26440 H 246.144058790149 82.9168491884545 20.13054936623675 H 0.0 **** 0.06
26441 C 45.25837271429434 162.48801219246374 18.055513513388547 C 0.0 **** -0.24
26442 H 45.92376982373413 161.62670360790204 18.1076745180452 H 0.0 **** 0.06
26443 H 45.59733746729964 163.25223465607436 18.754337155984018 H 0.0 **** 0.06
26444 H 44.24547399132622 162.17956175452636 18.316551986681546 H 0.0 **** 0.06
26445 H 45.26480019930463 162.8910920086408 17.04277271791031 H 0.0 **** 0.06
26446 C 244.7532296571593 192.52138655244977 204.57304412138197 C 0.0 **** -0.24
26447 H 245.7322689471104 192.1206405669059 204.8343089023369 H 0.0 **** 0.06
26448 H 244.69412509529047 192.66200853632665 203.4931646419131 H 0.0 **** 0.06
26449 H 244.60885863054443 193.4803305808566 205.07261788419908 H 0.0 **** 0.06
26450 H 243.97860403413702 191.82458825767094 204.89190434350039 H 0.0 **** 0.06
26451 C 62.35081247156441 211.92472194914717 169.48797090716766 C 0.0 **** -0.24
26452 H 62.648466643689346 212.49526174669222 170.3681333405143 H 0.0 **** 0.06
26453 H 63.07809505852015 212.07865586635359 168.69156338259643 H 0.0 **** 0.06
26454 H 61.367810525837115 212.2583940265941 169.15415704013893 H 0.0 **** 0.06
26455 H 62.30728024694696 210.86513225685314 169.74108985988062 H 0.0 **** 0.06
26456 C 172.07530848512158 220.9459392457495 191.5330229879985 C 0.0 **** -0.24
26457 H 172.30154764741474 220.92250079181235 190.46686396958233 H 0.0 **** 0.06
26458 H 172.47394272188552 221.8615924274318 191.9685715556569 H 0.0 **** 0.06
26459 H 172.53220432041113 220.08350116157828 192.0194624253162 H 0.0 **** 0.06
26460 H 170.99565262251755 220.9138176656652 191.67576744983083 H 0.0 **** 0.06
26461 C 204.58881669680096 84.44793322336801 113.90123230434159 C 0.0 **** -0.24
26462 H 205.34234980227447 83.69845360436506 113.65768203032721 H 0.0 **** 0.06
26463 H 203.65871568253544 83.9515523510814 114.17716834270891 H 0.0 **** 0.06
26464 H 204.41723025968832 85.08544328193298 113.03419159930655 H 0.0 **** 0.06
26465 H 204.93792105762157 85.05530811688703 114.73626910153223 H 0.0 **** 0.06
26466 C 173.9396579146233 23.24239078181415 93.9055035955609 C 0.0 **** -0.24
26467 H 174.48651979245295 22.78907248584659 93.07870605164271 H 0.0 **** 0.06
26468 H 174.21898264831157 24.29255685492558 93.99278179930047 H 0.0 **** 0.06
26469 H 174.1848432255515 22.722135728048457 94.83165715500164 H 0.0 **** 0.06
26470 H 172.8688932638153 23.164164648459135 93.71746821902954 H 0.0 **** 0.06
26471 C 29.0560160777936 44.21102944154873 248.8811525562087 C 0.0 **** -0.24
26472 H 28.765926864147417 45.06555005157574 249.49285129611718 H 0.0 **** 0.06
26473 H 29.09486257107463 44.51181959184726 247.83423479262933 H 0.0 **** 0.06
26474 H 28.325621851109446 43.4117491454908 249.00346299340845 H 0.0 **** 0.06
26475 H 30.03818227266882 43.856973593435725 249.1949671429383 H 0.0 **** 0.06
26476 C 199.28920273876992 71.35127615288363 171.10654336814628 C 0.0 **** -0.24
26477 H 198.53689074486667 71.34146982556206 171.8956872560336 H 0.0 **** 0.06
26478 H 199.72303704801922 72.34891969801205 171.03098062028994 H 0.0 **** 0.06
26479 H 198.8236935421728 71.0849259671158 170.15803963717352 H 0.0 **** 0.06
26480 H 200.07159694015616 70.63099862811436 171.34148836359967 H 0.0 **** 0.06
26481 C 213.8590714653768 198.34087286080916 40.37678442225993 C 0.0 **** -0.24
26482 H 213.76122301552192 197.27750605691114 40.59798636956171 H 0.0 **** 0.06
26483 H 213.19425629397773 198.60331838592154 39.553242248000814 H 0.0 **** 0.06
26484 H 214.8892686440692 198.5595305621408 40.09610284156872 H 0.0 **** 0.06
26485 H 213.59232917530466 198.92112162345592 41.25924545728512 H 0.0 **** 0.06
26486 C 40.176210173425105 158.47282879726907 248.61695066467786 C 0.0 **** -0.24
26487 H 41.082954414350525 158.7553066103863 249.15055606398843 H 0.0 **** 0.06
26488 H 39.84876279373724 159.30406267234508 247.99247806491377 H 0.0 **** 0.06
26489 H 39.394365140016916 158.22561568107153 249.33453869442178 H 0.0 **** 0.06
26490 H 40.379792811373335 157.60505419773818 247.98871270554073 H 0.0 **** 0.06
26491 C 216.55999661205834 24.30775276195277 11.617586134652498 C 0.0 **** -0.24
26492 H 216.15630440364296 23.299278381514767 11.524062875124258 H 0.0 **** 0.06
26493 H 217.4350727357206 24.410006269504834 10.975792891356349 H 0.0 **** 0.06
26494 H 216.8453332280069 24.489751406618865 12.653197098071558 H 0.0 **** 0.06
26495 H 215.80169529871853 25.03133604852482 11.316986861664162 H 0.0 **** 0.06
26496 C 26.0323772570747 205.92440434417568 94.3002858224589 C 0.0 **** -0.24
26497 H 26.391035544761223 204.90501405927233 94.44334962046841 H 0.0 **** 0.06
26498 H 25.41372739040051 205.96850367933595 93.4036403153361 H 0.0 **** 0.06
26499 H 26.883667120915646 206.59616160312189 94.18894255039626 H 0.0 **** 0.06
26500 H 25.442085952015844 206.22599144722915 95.16476714099551 H 0.0 **** 0.06
26501 C 37.381581522699136 45.49144261865223 202.98523820687518 C 0.0 **** -0.24
26502 H 38.23420601131363 46.10557103230454 202.6947449264593 H 0.0 **** 0.06
26503 H 36.48549512159248 45.8539381727831 202.4808735467148 H 0.0 **** 0.06
26504 H 37.240987505734296 45.551978421490986 204.06431897564516 H 0.0 **** 0.06
26505 H 37.565513039597136 44.45582059621222 202.7002280532998 H 0.0 **** 0.06
26506 C 36.832752392074894 185.66078891571817 66.72024819037455 C 0.0 **** -0.24
26507 H 37.54530976994164 186.16273629504218 67.37499347168475 H 0.0 **** 0.06
26508 H 35.92450430315611 186.25952558291056 66.64495283325061 H 0.0 **** 0.06
26509 H 36.589111537259924 184.68123192485638 67.13046617572721 H 0.0 **** 0.06
26510 H 37.27144978755133 185.54095768981583 65.7296218016333 H 0.0 **** 0.06
26511 C 53.47730084442114 129.46130065727877 191.8461570137707 C 0.0 **** -0.24
26512 H 52.5190964740718 129.04523629546006 191.53423490012463 H 0.0 **** 0.06
26513 H 53.62228213573812 130.43242559938662 191.37171697362825 H 0.0 **** 0.06
26514 H 54.27919999520057 128.7871651485824 191.54745210330057 H 0.0 **** 0.06
26515 H 53.48568105639126 129.5810364722281 192.92901095811598 H 0.0 **** 0.06
26516 C 141.81022434096457 15.047357622948567 78.83309565911765 C 0.0 **** -0.24
26517 H 142.23243208425276 14.763115805462661 77.8702520786469 H 0.0 **** 0.06
26518 H 142.53806683341082 14.85188890351455 79.62153834542531 H 0.0 **** 0.06
26519 H 140.90664684759346 14.465200942780314 79.01936133298261 H 0.0 **** 0.06
26520 H 141.562845081911 16.108774959322574 78.82221873279997 H 0.0 **** 0.06
26521 C 101.73935307500525 39.637573807802 68.99280761201351 C 0.0 **** -0.24
26522 H 101.77540955807922 40.68077054302009 69.30762672871884 H 0.0 **** 0.06
26523 H 102.09394727186069 39.55597020089155 67.96524721104262 H 0.0 **** 0.06
26524 H 100.71365476448543 39.27490434316124 69.0540072587415 H 0.0 **** 0.06
26525 H 102.37553268315386 39.03976179283299 69.64621550848435 H 0.0 **** 0.06
26526 C 58.9313635726088 111.00427054192843 128.1333087134948 C 0.0 **** -0.24
26527 H 58.170145214809736 110.38785664404975 128.61167686543985 H 0.0 **** 0.06
26528 H 58.47210928954868 111.60731390405019 127.35009113516742 H 0.0 **** 0.06
26529 H 59.696296625792854 110.36112360784392 127.69526643345606 H 0.0 **** 0.06
26530 H 59.38811202181316 111.65842608175467 128.87480040990027 H 0.0 **** 0.06
26531 C 119.12446601988344 157.18133552966677 86.41912311604179 C 0.0 **** -0.24
26532 H 118.97615586393391 156.9197156423193 85.37143628253489 H 0.0 **** 0.06
26533 H 118.15868802343527 157.22189808353383 86.92292973642307 H 0.0 **** 0.06
26534 H 119.60987317269476 158.15502421364792 86.48500035816133 H 0.0 **** 0.06
26535 H 119.75284524345665 156.42969228736354 86.89616037854992 H 0.0 **** 0.06
26536 C 116.73271949881351 13.46814021466642 219.69580977819965 C 0.0 **** -0.24
26537 H 116.42234162662675 13.814400373896234 218.71050980491356 H 0.0 **** 0.06
26538 H 116.94282779623245 14.327579200507472 220.33271770344396 H 0.0 **** 0.06
26539 H 117.63264041728206 12.859176866449985 219.59933922016734 H 0.0 **** 0.06
26540 H 115.935728658377 12.871906652417891 220.13903849928482 H 0.0 **** 0.06
26541 C 111.05587648035666 91.1104932418572 144.88827061067437 C 0.0 **** -0.24
26542 H 110.72577100508323 90.11817335251231 144.58002203057075 H 0.0 **** 0.06
26543 H 112.0881524750933 91.26352238839564 144.57443958256914 H 0.0 **** 0.06
26544 H 110.98811636845628 91.19537183783905 145.9724738906666 H 0.0 **** 0.06
26545 H 110.41903996770003 91.86481581685103 144.42438453184423 H 0.0 **** 0.06
26546 C 148.9346323824549 17.81297375662362 14.225943495630972 C 0.0 **** -0.24
26547 H 148.22523624976102 18.626884348667176 14.377638090109258 H 0.0 **** 0.06
26548 H 148.882814175354 17.47501261902417 13.191362564171271 H 0.0 **** 0.06
26549 H 148.68635015472685 16.987018799432832 14.892197883695417 H 0.0 **** 0.06
26550 H 149.94225780649336 18.165105774679063 14.445020212640756 H 0.0 **** 0.06
26551 C 172.20291878691205 183.9017379932422 42.07179222215399 C 0.0 **** -0.24
26552 H 172.01326583417045 183.53039567651263 41.065326525744794 H 0.0 **** 0.06
26553 H 173.2718699391315 184.07392997252128 42.200411554947735 H 0.0 **** 0.06
26554 H 171.8642057649785 183.16502618394435 42.8011047615947 H 0.0 **** 0.06
26555 H 171.66331971163115 184.83621733275405 42.22209112561809 H 0.0 **** 0.06
26556 C 53.00980910269496 150.59238203065897 159.8663002504641 C 0.0 **** -0.24
26557 H 52.78962421449596 150.26300521584204 158.8511455370589 H 0.0 **** 0.06
26558 H 53.472869808684734 149.77505856923628 160.42007522356707 H 0.0 **** 0.06
26559 H 52.084687107011305 150.88739150322402 160.3605514660705 H 0.0 **** 0.06
26560 H 53.69130540840348 151.44199440468978 159.83237147655097 H 0.0 **** 0.06
26561 C 247.70219844485575 127.15102610708175 28.71917606293603 C 0.0 **** -0.24
26562 H 247.43389706734015 127.66706122489026 27.797523908733808 H 0.0 **** 0.06
26563 H 248.18000733534345 127.85356773566292 29.402625038184297 H 0.0 **** 0.06
26564 H 248.39215783506563 126.33854929374118 28.49241179843449 H 0.0 **** 0.06
26565 H 246.80382922636932 126.74544219754151 29.183416301109077 H 0.0 **** 0.06
26566 C 161.51748173680764 65.90557939247145 229.89509290028724 C 0.0 **** -0.24
26567 H 160.9988257873816 65.35756620769385 230.68122909522464 H 0.0 **** 0.06
26568 H 161.36728958085837 66.97582004882617 230.03860884845295 H 0.0 **** 0.06
26569 H 161.12097050373757 65.60951429387353 228.92422634806985 H 0.0 **** 0.06
26570 H 162.58353417640345 65.67852062446423 229.9371535399988 H 0.0 **** 0.06
26571 C 132.26833879633838 117.98320151338945 115.49734302045974 C 0.0 **** -0.24
26572 H 132.87765331075363 118.12716503211047 116.38936089740702 H 0.0 **** 0.06
26573 H 131.9273173967873 116.94868152550683 115.45475932533176 H 0.0 **** 0.06
26574 H 132.86319260086256 118.20767973474449 114.61155294608332 H 0.0 **** 0.06
26575 H 131.40735752646637 118.64954622165413 115.53418779918351 H 0.0 **** 0.06
26576 C 100.79321871338789 167.6066172868238 156.1127559186413 C 0.0 **** -0.24
26577 H 99.80833597161211 167.67618332894205 156.57479392772092 H 0.0 **** 0.06
26578 H 101.4483480917981 168.36631495521152 156.53792354382696 H 0.0 **** 0.06
26579 H 100.70169960242464 167.7645337474956 155.03833551263705 H 0.0 **** 0.06
26580 H 101.21304130405011 166.61790094257407 156.30070421497595 H 0.0 **** 0.06
26581 C 50.22695403382349 21.129183138412117 102.3689030018219 C 0.0 **** -0.24
26582 H 50.2007588229645 20.124123073493564 102.7911122574379 H 0.0 **** 0.06
26583 H 50.99603469462588 21.71376473087284 102.87272425763007 H 0.0 **** 0.06
26584 H 49.25668204912958 21.607017982644237 102.50840109223162 H 0.0 **** 0.06
26585 H 50.45268781010921 21.06993353862444 101.30467214998203 H 0.0 **** 0.06
26586 C 162.55681517365034 20.195703825592147 109.98308501954261 C 0.0 **** -0.24
26587 H 162.4025891554317 20.07098129873711 108.91100843581879 H 0.0 **** 0.06
26588 H 163.100398647073 19.33553171712424 110.37354310653689 H 0.0 **** 0.06
26589 H 161.5906948646558 20.273182790088654 110.48260192167018 H 0.0 **** 0.06
26590 H 163.13263784816832 21.102899194701735 110.16374871313928 H 0.0 **** 0.06
26591 C 197.66234022375002 193.57618747263766 5.281241352418732 C 0.0 **** -0.24
26592 H 197.12777253349336 194.19226316567318 6.004423691808327 H 0.0 **** 0.06
26593 H 196.99335645176012 193.32071904686725 4.458205395947971 H 0.0 **** 0.06
26594 H 198.0071002211701 192.66373218737607 5.766474753763035 H 0.0 **** 0.06
26595 H 198.5188136789345 194.12843123743275 4.895175802746749 H 0.0 **** 0.06
26596 C 151.52746288096682 32.05441612408086 163.60920015715064 C 0.0 **** -0.24
26597 H 151.9537684083638 32.2477714600675 164.59411532654715 H 0.0 **** 0.06
26598 H 151.59599253349185 32.956252625881376 163.00091800311145 H 0.0 **** 0.06
26599 H 150.48205288904546 31.76556599865907 163.71654129706457 H 0.0 **** 0.06
26600 H 152.07997430271956 31.247900255421513 163.12751058059047 H 0.0 **** 0.06
26601 C 160.97257532023318 101.10497579225205 10.326328614658763 C 0.0 **** -0.24
26602 H 161.92796877209716 100.61138455978721 10.498571456875737 H 0.0 **** 0.06
26603 H 160.94347802883863 102.0436166079551 10.8800084311695 H 0.0 **** 0.06
26604 H 160.16260213746824 100.4586937516589 10.664926516332656 H 0.0 **** 0.06
26605 H 160.8548877239104 101.30619080389965 9.261437202333894 H 0.0 **** 0.06
26606 C 225.20412280623077 19.457561410798718 145.57434955119535 C 0.0 **** -0.24
26607 H 224.30652948715206 20.050458257908417 145.7480191342271 H 0.0 **** 0.06
26608 H 226.0062131840896 19.815099127127553 146.22024921739143 H 0.0 **** 0.06
26609 H 225.5067273427279 19.55428539312109 144.53170074445632 H 0.0 **** 0.06
26610 H 224.9968130741114 18.41080412014776 145.79608907405546 H 0.0 **** 0.06
26611 C 75.16066804393469 189.3874856211898 60.689970868258996 C 0.0 **** -0.24
26612 H 74.37462145911203 190.06702472308768 61.02063679196928 H 0.0 **** 0.06
26613 H 75.90862581431563 189.28812067706738 61.4765205166689 H 0.0 **** 0.06
26614 H 75.62898593951647 189.78471348727015 59.79039212067218 H 0.0 **** 0.06
26615 H 74.72839900006747 188.4104485547213 60.47425899465415 H 0.0 **** 0.06
26616 C 149.05952012438857 106.63125032550931 148.36203581245627 C 0.0 **** -0.24
26617 H 149.4603061264671 107.63685372410114 148.48682342352387 H 0.0 **** 0.06
26618 H 149.47040882024746 105.97818947228987 149.13191929067747 H 0.0 **** 0.06
26619 H 149.33378249084112 106.25073839471568 147.37772112622034 H 0.0 **** 0.06
26620 H 147.97331616152044 106.66079524730918 148.45101121816248 H 0.0 **** 0.06
26621 C 127.29136137222352 220.02147225035154 42.54399811624366 C 0.0 **** -0.24
26622 H 127.50913911005117 220.4954851006675 41.586932682969206 H 0.0 **** 0.06
26623 H 126.21840740899563 220.064219213493 42.7340509232658 H 0.0 **** 0.06
26624 H 127.82257675081527 220.5460366349561 43.337915613670745 H 0.0 **** 0.06
26625 H 127.61513598448681 218.9809117960046 42.51647516581065 H 0.0 **** 0.06
26626 C 186.2607786526634 89.24583424034591 92.73936849721423 C 0.0 **** -0.24
26627 H 186.29277794574176 89.3016380138717 93.82703873401525 H 0.0 **** 0.06
26628 H 186.86943803280087 90.04494818551629 92.31695729399877 H 0.0 **** 0.06
26629 H 185.2310888869102 89.3557035684864 92.40022652287527 H 0.0 **** 0.06
26630 H 186.64980974520074 88.28104719350915 92.4132514379676 H 0.0 **** 0.06
26631 C 194.09039225267466 154.13493067916284 77.62689276770931 C 0.0 **** -0.24
26632 H 195.06512826300855 153.93873032256332 78.07313563401439 H 0.0 **** 0.06
26633 H 194.05014394016422 155.1679171161632 77.2824792726669 H 0.0 **** 0.06
26634 H 193.31098377078388 153.96920385468107 78.3700755170299 H 0.0 **** 0.06
26635 H 193.93566883917347 153.4627663226669 76.7826882217787 H 0.0 **** 0.06
26636 C 5.762056291794508 204.5180846803906 63.39503373399913 C 0.0 **** -0.24
26637 H 5.477832672771669 203.8266878585776 62.600861868438784 H 0.0 **** 0.06
26638 H 6.801757404034035 204.81549718630114 63.262463160616676 H 0.0 **** 0.06
26639 H 5.644237997320701 204.0280563358557 64.36206199124786 H 0.0 **** 0.06
26640 H 5.12209631414936 205.4001845617825 63.35452932840215 H 0.0 **** 0.06
26641 C 61.717448192272144 24.023308963484297 144.58112984502188 C 0.0 **** -0.24
26642 H 61.12794747606827 23.47111427488521 143.85012061943547 H 0.0 **** 0.06
26643 H 62.681427437447866 23.53221350695749 144.71581035976018 H 0.0 **** 0.06
26644 H 61.186589245059736 24.047896245814997 145.53237997242184 H 0.0 **** 0.06
26645 H 61.874997624602344 25.042549300397823 144.22679540981994 H 0.0 **** 0.06
26646 C 57.37954625758479 87.95900782300728 73.75587363226566 C 0.0 **** -0.24
26647 H 58.33169753780584 87.44277563247547 73.88224547796426 H 0.0 **** 0.06
26648 H 56.85360322549829 87.54333987890297 72.89601686361294 H 0.0 **** 0.06
26649 H 57.560459503924676 89.02098614225403 73.59293190703352 H 0.0 **** 0.06
26650 H 56.77289054748471 87.82575661163281 74.65099067634301 H 0.0 **** 0.06
26651 C 141.41174962180008 215.66139981823355 9.094616821820424 C 0.0 **** -0.24
26652 H 140.92421199673538 215.0526762844949 8.333554218381664 H 0.0 **** 0.06
26653 H 142.4587814493683 215.3687583030306 9.176999286734514 H 0.0 **** 0.06
26654 H 140.91645005250265 215.5113605077757 10.053313906222783 H 0.0 **** 0.06
26655 H 141.34888024220638 216.71260974658188 8.813501728119391 H 0.0 **** 0.06
26656 C 78.2096811884291 36.29183949099853 117.484598918014 C 0.0 **** -0.24
26657 H 78.11107450183465 35.59682319516017 116.65015859763756 H 0.0 **** 0.06
26658 H 78.83655922283552 35.84552919074103 118.25706809051405 H 0.0 **** 0.06
26659 H 77.22326036608249 36.507659628755846 117.89542881126494 H 0.0 **** 0.06
26660 H 78.66788215257057 37.21668495152362 117.13499154693267 H 0.0 **** 0.06
26661 C 50.81125019568357 237.47301066984394 15.156903103362453 C 0.0 **** -0.24
26662 H 49.91037847770011 236.95876439574278 14.819924616381684 H 0.0 **** 0.06
26663 H 51.55154383396618 236.7370260705004 15.471545080206297 H 0.0 **** 0.06
26664 H 50.5657806295325 238.12312380465988 15.995764330481578 H 0.0 **** 0.06
26665 H 51.215746576513354 238.06982458222328 14.339554708488777 H 0.0 **** 0.06
26666 C 34.11451269301179 87.18111546232532 40.74180600056769 C 0.0 **** -0.24
26667 H 33.388377330358225 87.44805865203952 41.509882390795724 H 0.0 **** 0.06
26668 H 35.078622717786885 87.63128100840797 40.98092400971535 H 0.0 **** 0.06
26669 H 33.77163258016819 87.54856840002978 39.774378411671904 H 0.0 **** 0.06
26670 H 34.218596260177065 86.09670494752115 40.70258843338959 H 0.0 **** 0.06
26671 C 134.07027976179126 95.42465810420535 43.58978536739939 C 0.0 **** -0.24
26672 H 133.8649799118766 95.66310846054049 44.63263288885359 H 0.0 **** 0.06
26673 H 133.99006874013233 94.34829523894766 43.43983625187414 H 0.0 **** 0.06
26674 H 135.07783499929184 95.75334095249312 43.334370800601405 H 0.0 **** 0.06
26675 H 133.34920435896944 95.93581129515746 42.951700537164584 H 0.0 **** 0.06
26676 C 13.461273913933354 169.87987021159486 105.1726315378493 C 0.0 **** -0.24
26677 H 14.183986171991961 169.86242565640248 105.98827131525496 H 0.0 **** 0.06
26678 H 13.853499944206561 169.31297025923593 104.32748671728788 H 0.0 **** 0.06
26679 H 13.281456843903726 170.91050139276686 104.86804369987172 H 0.0 **** 0.06
26680 H 12.52537333580156 169.43179491394844 105.50781687998327 H 0.0 **** 0.06
26681 C 56.711257705735534 201.21532786073337 127.73310842875878 C 0.0 **** -0.24
26682 H 55.762128435396676 201.74955437551245 127.74767593089643 H 0.0 **** 0.06
26683 H 57.2917847050754 201.48017855628765 128.61679054392175 H 0.0 **** 0.06
26684 H 57.26853089159215 201.48841562418744 126.83732763331571 H 0.0 **** 0.06
26685 H 56.52295445642633 200.14077387750655 127.7302427261026 H 0.0 **** 0.06
26686 C 176.0249874591602 165.6455294883955 107.82707101672136 C 0.0 **** -0.24
26687 H 176.17626950451043 166.68046874966026 107.5207720869166 H 0.0 **** 0.06
26688 H 176.5271717795168 165.47216833612865 108.77895829500909 H 0.0 **** 0.06
26689 H 176.4395530303402 164.97871082574832 107.07125501785075 H 0.0 **** 0.06
26690 H 174.95794206586137 165.45145924138066 107.9380414695726 H 0.0 **** 0.06
26691 C 17.23086108307345 111.51669227634818 162.77240690811962 C 0.0 **** -0.24
26692 H 18.266005051390422 111.68809681159718 162.4771273471793 H 0.0 **** 0.06
26693 H 16.564450514613995 112.00466715275533 162.0610982240215 H 0.0 **** 0.06
26694 H 17.065004741848256 111.92918220915786 163.76867058750352 H 0.0 **** 0.06
26695 H 17.029680613999574 110.44577412703333 162.78522484679692 H 0.0 **** 0.06
26696 C 93.19018091740614 232.17214762702696 94.24860955769756 C 0.0 **** -0.24
26697 H 94.21985509297335 232.5163445120366 94.35083565895363 H 0.0 **** 0.06
26698 H 92.58963469969612 232.58126775052824 95.06129063765653 H 0.0 **** 0.06
26699 H 93.16636306187573 231.08372091650622 94.28981105393373 H 0.0 **** 0.06
26700 H 92.78797338921288 232.50944962409793 93.29410339129129 H 0.0 **** 0.06
26701 C 90.24299526775988 211.79777500800694 211.66659155484007 C 0.0 **** -0.24
26702 H 90.20579526621609 210.79505137526704 211.2412351842379 H 0.0 **** 0.06
26703 H 90.18233504260061 212.53459325280153 210.86577211312417 H 0.0 **** 0.06
26704 H 91.17850065164845 211.92656046770747 212.21003662222495 H 0.0 **** 0.06
26705 H 89.40485188576756 211.93367870278357 212.34984437990892 H 0.0 **** 0.06
26706 C 48.39437222598431 69.65950431107419 211.9846797061851 C 0.0 **** -0.24
26707 H 47.49716246238455 70.11451077713332 211.56682289988873 H 0.0 **** 0.06
26708 H 48.111996478322425 68.8458873792355 212.6523083364327 H 0.0 **** 0.06
26709 H 48.95673052586025 70.409145206516 212.54198056408336 H 0.0 **** 0.06
26710 H 49.013643706581405 69.2686071127246 211.1767107757674 H 0.0 **** 0.06
26711 C 54.84380009759471 64.66455950612732 236.8209375270815 C 0.0 **** -0.24
26712 H 55.46418343851181 65.0799157816493 237.61500253835231 H 0.0 **** 0.06
26713 H 55.42730046954901 63.94888669793809 236.24090621216789 H 0.0 **** 0.06
26714 H 54.50118368029638 65.46722338119176 236.16939915954026 H 0.0 **** 0.06
26715 H 53.98201597656808 64.16006952188633 237.25951085901823 H 0.0 **** 0.06
26716 C 143.03571202890197 56.25725422168037 167.93717377627286 C 0.0 **** -0.24
26717 H 143.72055632095203 55.97934930778206 167.13674032358767 H 0.0 **** 0.06
26718 H 142.13712361798503 56.70187704258589 167.50898808319454 H 0.0 **** 0.06
26719 H 143.52163454943815 56.97850608820761 168.5951256202978 H 0.0 **** 0.06
26720 H 142.76546520449034 55.36911729528134 168.50933811763778 H 0.0 **** 0.06
26721 C 239.94758354260574 51.51631066064418 75.29372775064576 C 0.0 **** -0.24
26722 H 240.95629502516886 51.20970382002319 75.56976933341454 H 0.0 **** 0.06
26723 H 239.53711760718375 50.80862296338334 74.57277461933171 H 0.0 **** 0.06
26724 H 239.97832154663183 52.510935614520506 74.84986410393051 H 0.0 **** 0.06
26725 H 239.31688892580448 51.534767717205455 76.18327888422911 H 0.0 **** 0.06
26726 C 177.6292999378163 93.12088518596474 103.16992492567329 C 0.0 **** -0.24
26727 H 178.12703610827407 94.0036616858172 103.57269773541293 H 0.0 **** 0.06
26728 H 178.24783286475156 92.68175433776199 102.38600738954247 H 0.0 **** 0.06
26729 H 176.66289679004512 93.40701895118613 102.75375428492052 H 0.0 **** 0.06
26730 H 177.4803168737277 92.39220838853319 103.96717127845807 H 0.0 **** 0.06
26731 C 89.79327631371322 174.56552456323385 1.3969600556995232 C 0.0 **** -0.24
26732 H 89.6135680308929 173.72752839302697 0.7234461944060939 H 0.0 **** 0.06
26733 H 90.58117258957236 175.19764120828313 0.9882528650504554 H 0.0 **** 0.06
26734 H 90.10042680659478 174.18706217879034 2.372585690956896 H 0.0 **** 0.06
26735 H 88.87831682917894 175.14723235378045 1.5045135186555711 H 0.0 **** 0.06
26736 C 185.71530741577737 229.71315897089525 34.179211498217285 C 0.0 **** -0.24
26737 H 186.50245188483285 229.22121829212216 33.60712362901219 H 0.0 **** 0.06
26738 H 185.1935396774131 228.97417897317135 34.78767149167683 H 0.0 **** 0.06
26739 H 185.0106462126525 230.18452537414632 33.494913419167986 H 0.0 **** 0.06
26740 H 186.15732234102427 230.47089860113667 34.82663565094575 H 0.0 **** 0.06
26741 C 161.93122955902734 243.72161246216643 25.105467965324976 C 0.0 **** -0.24
26742 H 161.458103490878 244.38512879392505 24.382173860590882 H 0.0 **** 0.06
26743 H 161.16281172054286 243.22422831482862 25.698787964896866 H 0.0 **** 0.06
26744 H 162.57844085863178 244.30329282490658 25.76273965146561 H 0.0 **** 0.06
26745 H 162.52427486870457 242.97395204485747 24.57873584125059 H 0.0 **** 0.06
26746 C 233.77708697360197 63.62442240643517 45.208845820453504 C 0.0 **** -0.24
26747 H 234.5082026190422 63.24360745448328 45.92194290639479 H 0.0 **** 0.06
26748 H 234.26589684785972 64.31349182108275 44.52004554562484 H 0.0 **** 0.06
26749 H 232.98492555435263 64.14656114511885 45.744332496953874 H 0.0 **** 0.06
26750 H 233.34966359557086 62.7927730498246 44.648509158596454 H 0.0 **** 0.06
26751 C 177.7522101908069 141.04425186893775 174.40456289312044 C 0.0 **** -0.24
26752 H 176.90369017982152 141.66949668887946 174.68165362048808 H 0.0 **** 0.06
26753 H 177.3906444848251 140.09922836482298 173.99993172728753 H 0.0 **** 0.06
26754 H 178.36459844161146 140.85244971054613 175.28602198913046 H 0.0 **** 0.06
26755 H 178.35069774877138 141.55767675004068 173.65204970177535 H 0.0 **** 0.06
26756 C 236.1016722639319 224.41920143066866 199.93496748734603 C 0.0 **** -0.24
26757 H 236.61935432515514 225.34115086907642 199.67297880217174 H 0.0 **** 0.06
26758 H 236.4567679785389 224.06471048394633 200.90335211396402 H 0.0 **** 0.06
26759 H 236.30125520524666 223.66260620815646 199.1758424040253 H 0.0 **** 0.06
26760 H 235.0293696129465 224.60693052253959 199.9878199189868 H 0.0 **** 0.06
26761 C 113.33315659467235 138.63600556869272 4.239737697826698 C 0.0 **** -0.24
26762 H 114.31350139334668 138.30533717140526 4.582966567503576 H 0.0 **** 0.06
26763 H 112.93380491399552 137.91086420668086 3.529223919530523 H 0.0 **** 0.06
26764 H 113.427156281306 139.60662745085435 3.7532402310690856 H 0.0 **** 0.06
26765 H 112.65872815883196 138.71988918732373 5.091793676289896 H 0.0 **** 0.06
26766 C 149.21008934982416 141.58106395689828 43.25286614061679 C 0.0 **** -0.24
26767 H 148.29659180041614 141.0531537614497 43.52454538321051 H 0.0 **** 0.06
26768 H 150.02827915743308 141.24280486854892 43.88829968735624 H 0.0 **** 0.06
26769 H 149.06438108221468 142.6532119752416 43.38702016654133 H 0.0 **** 0.06
26770 H 149.45161808107315 141.37637901726177 42.209583570048366 H 0.0 **** 0.06
26771 C 238.41143014619155 136.7590420749604 72.3279594137195 C 0.0 **** -0.24
26772 H 238.70202390397802 136.37531428014015 71.34965791472877 H 0.0 **** 0.06
26773 H 238.06167691538175 137.7860808086397 72.22685709495369 H 0.0 **** 0.06
26774 H 239.271584180142 136.73232921350052 72.99742041806053 H 0.0 **** 0.06
26775 H 237.61313001397286 136.1411944123374 72.73747952352602 H 0.0 **** 0.06
26776 C 44.54394225339709 13.014730173377629 222.22863221766286 C 0.0 **** -0.24
26777 H 45.13935792903143 12.504452349120243 222.98646946616682 H 0.0 **** 0.06
26778 H 43.913825782734776 13.765192522423789 222.7066605342271 H 0.0 **** 0.06
26779 H 43.91587392938641 12.288894455750736 221.71232876208248 H 0.0 **** 0.06
26780 H 45.20633542215943 13.498905538428573 221.51070737492793 H 0.0 **** 0.06
26781 C 72.5904521586364 22.600635855497885 56.899538330699926 C 0.0 **** -0.24
26782 H 72.62985567262845 23.399187416036014 57.6395588204669 H 0.0 **** 0.06
26783 H 73.53020328970206 22.047728312487834 56.913199903995746 H 0.0 **** 0.06
26784 H 72.43513795098582 23.029282097030276 55.91001700452159 H 0.0 **** 0.06
26785 H 71.76851832632371 21.925701347404498 57.1367739671976 H 0.0 **** 0.06
26786 C 77.53854464049422 214.84203639549997 211.96774875505514 C 0.0 **** -0.24
26787 H 78.29808736682031 215.35648782539675 212.5571409423581 H 0.0 **** 0.06
26788 H 76.59826992080772 215.38907717326816 212.03142293686358 H 0.0 **** 0.06
26789 H 77.39932920483491 213.83313320287309 212.3559213685877 H 0.0 **** 0.06
26790 H 77.86043118958261 214.79090357717314 210.92796558228747 H 0.0 **** 0.06
26791 C 84.66972314571967 207.7306842923582 55.92865343506375 C 0.0 **** -0.24
26792 H 83.9426857954241 207.8918227279052 56.72482343459947 H 0.0 **** 0.06
26793 H 84.67645357221741 208.59315351876958 55.262416915002376 H 0.0 **** 0.06
26794 H 84.39837257282886 206.83748914348433 55.366057789759424 H 0.0 **** 0.06
26795 H 85.660803797993 207.5987676946704 56.363640478939175 H 0.0 **** 0.06
26796 C 26.774067924633215 144.17189108697596 30.027187339060532 C 0.0 **** -0.24
26797 H 26.32750819138775 145.1658128546161 30.026490446011252 H 0.0 **** 0.06
26798 H 26.762048497391476 143.76986733679152 31.040371926751817 H 0.0 **** 0.06
26799 H 27.80323111501943 144.23684674155106 29.673967209239066 H 0.0 **** 0.06
26800 H 26.203621312122635 143.51643047541987 29.369663490863303 H 0.0 **** 0.06
26801 C 54.213074971968126 209.326210775152 61.01231840143038 C 0.0 **** -0.24
26802 H 53.80612874130108 210.0284697515567 61.739639968012796 H 0.0 **** 0.06
26803 H 54.430602813892904 209.85251307923286 60.082326410914845 H 0.0 **** 0.06
26804 H 53.485755944745335 208.5377696971212 60.821847257763835 H 0.0 **** 0.06
26805 H 55.130254710071085 208.8874901179954 61.40454037493615 H 0.0 **** 0.06
26806 C 143.935164566822 73.87687318452706 189.0676761131822 C 0.0 **** -0.24
26807 H 143.6514499251741 74.81324181363561 189.54771085963478 H 0.0 **** 0.06
26808 H 145.01892676873686 73.76665297257259 189.0980991123674 H 0.0 **** 0.06
26809 H 143.59999038338017 73.88503555926567 188.03003734116942 H 0.0 **** 0.06
26810 H 143.46928030813424 73.04296524923578 189.5920614442847 H 0.0 **** 0.06
26811 C 173.55584723667326 136.12088385130525 106.57810439348393 C 0.0 **** -0.24
26812 H 173.97281583501723 135.15744919249667 106.8730627374432 H 0.0 **** 0.06
26813 H 173.98611146504203 136.42574983920406 105.62434237460317 H 0.0 **** 0.06
26814 H 173.79149063811354 136.86608567425185 107.33784053123276 H 0.0 **** 0.06
26815 H 172.47489349602574 136.0327971119146 106.47760917660628 H 0.0 **** 0.06
26816 C 72.02653398090268 8.441581661056802 81.47281702618034 C 0.0 **** -0.24
26817 H 71.67407429370786 7.538085992900136 80.97535414857555 H 0.0 **** 0.06
26818 H 71.31418799854606 8.73204557718364 82.24542785321205 H 0.0 **** 0.06
26819 H 72.11823685172249 9.246098396458223 80.74245479785236 H 0.0 **** 0.06
26820 H 72.99824708441787 8.251325260331697 81.92678255347528 H 0.0 **** 0.06
26821 C 115.16223043948563 187.39381867985108 40.11335805135528 C 0.0 **** -0.24
26822 H 115.48889465463094 187.76089339212692 39.14044941522829 H 0.0 **** 0.06
26823 H 114.22077166475793 187.87216090961184 40.38479803165845 H 0.0 **** 0.06
26824 H 115.9187045575307 187.62952715217418 40.86287189930485 H 0.0 **** 0.06
26825 H 115.0214839538117 186.31493734771155 40.06561868366421 H 0.0 **** 0.06
26826 C 124.04779650743183 31.469102579473457 112.65143710368412 C 0.0 **** -0.24
26827 H 123.11909077618793 31.929845193174188 112.98626014032973 H 0.0 **** 0.06
26828 H 124.76614404435827 31.461411690179133 113.4719127259686 H 0.0 **** 0.06
26829 H 124.45505256884633 32.03926417626725 111.81624202058427 H 0.0 **** 0.06
26830 H 123.85089864033475 30.44588925827327 112.33133352785401 H 0.0 **** 0.06
26831 C 70.30132746475923 112.52375782313109 135.81969946179186 C 0.0 **** -0.24
26832 H 69.84936073290535 113.4902250354225 135.59308351938984 H 0.0 **** 0.06
26833 H 71.38669602501525 112.6155411670114 135.79340372297017 H 0.0 **** 0.06
26834 H 69.97954993309924 111.79008625559325 135.08040938157276 H 0.0 **** 0.06
26835 H 69.98738040020515 112.20111267313365 136.81283133892404 H 0.0 **** 0.06
26836 C 100.85951994634704 126.00558563437028 2.992502398046355 C 0.0 **** -0.24
26837 H 100.60452798040356 125.62786460943099 2.0024359901962896 H 0.0 **** 0.06
26838 H 101.00686227197687 125.16771325169537 3.674197844599547 H 0.0 **** 0.06
26839 H 100.04882457501503 126.6350727466031 3.3605344177543373 H 0.0 **** 0.06
26840 H 101.77649357530296 126.59164034862425 2.933182907170334 H 0.0 **** 0.06
26841 C 78.43407994101628 171.86924951691088 111.48569232737853 C 0.0 **** -0.24
26842 H 79.42088062127146 172.19460044259878 111.8145247441438 H 0.0 **** 0.06
26843 H 77.84814483757177 171.55925458247026 112.35130180630682 H 0.0 **** 0.06
26844 H 78.53805319909861 171.0302967965115 110.79766800885395 H 0.0 **** 0.06
26845 H 77.9297708002473 172.69319435893166 110.98088666546093 H 0.0 **** 0.06
26846 C 129.06643130416091 228.92341349510332 189.56937574205529 C 0.0 **** -0.24
26847 H 128.38296720632343 229.2784582360558 188.79778995158713 H 0.0 **** 0.06
26848 H 128.89217172391452 229.47692159361148 190.49183980557956 H 0.0 **** 0.06
26849 H 130.09455816978158 229.0748932068471 189.24203707215014 H 0.0 **** 0.06
26850 H 128.89384984148032 227.86068086388224 189.74485389052006 H 0.0 **** 0.06
26851 C 196.65433513737457 4.95116105377636 180.13717034501246 C 0.0 **** -0.24
26852 H 196.07249235856392 4.524377345544821 179.32032322684765 H 0.0 **** 0.06
26853 H 196.80579360592213 4.196362439482755 180.9082137576193 H 0.0 **** 0.06
26854 H 196.11736462457284 5.800885657754094 180.5588791732959 H 0.0 **** 0.06
26855 H 197.62076993845224 5.284385424062549 179.75875805053272 H 0.0 **** 0.06
26856 C 112.78455226578708 179.37761215497153 227.8864661102183 C 0.0 **** -0.24
26857 H 112.60217591735838 180.3899421921086 228.24819990806145 H 0.0 **** 0.06
26858 H 112.14336625526946 179.17957219578153 227.02699926822095 H 0.0 **** 0.06
26859 H 112.56232982734352 178.66293477656842 228.67824006248026 H 0.0 **** 0.06
26860 H 113.82890602449797 179.2802324643781 227.5914424115802 H 0.0 **** 0.06
26861 C 61.907006555155135 83.60737240078487 51.68533238735361 C 0.0 **** -0.24
26862 H 61.83023071201893 82.79882384461018 52.41242060292282 H 0.0 **** 0.06
26863 H 62.71923188399978 83.39469994524043 50.990355402674226 H 0.0 **** 0.06
26864 H 62.107123479221855 84.5447976955931 52.20399181285691 H 0.0 **** 0.06
26865 H 60.96933189753585 83.6904230164198 51.13454893235547 H 0.0 **** 0.06
26866 C 67.85184375024755 24.566202926519907 39.720355826403406 C 0.0 **** -0.24
26867 H 67.78301087251194 24.059594248449983 38.75703746590804 H 0.0 **** 0.06
26868 H 67.55534360290102 25.60841078842728 39.6037539379534 H 0.0 **** 0.06
26869 H 68.87875020476386 24.517933760868544 40.082249163941526 H 0.0 **** 0.06
26870 H 67.19104232982261 24.07711826474558 40.43567620218734 H 0.0 **** 0.06
26871 C 88.36431304116218 60.19752449345623 245.50899134400413 C 0.0 **** -0.24
26872 H 88.44531117433593 60.96426139733026 246.28007914748196 H 0.0 **** 0.06
26873 H 87.3185041541891 59.91284663225329 245.39082678780983 H 0.0 **** 0.06
26874 H 88.94806337555255 59.32552264213666 245.80144112359324 H 0.0 **** 0.06
26875 H 88.74394976177572 60.590008358884205 244.5659669866505 H 0.0 **** 0.06
26876 C 116.04847891580386 202.59603284238813 124.51804684189835 C 0.0 **** -0.24
26877 H 115.30595241919622 203.19663004906485 125.04356560225563 H 0.0 **** 0.06
26878 H 116.55016061282299 203.21197479717938 123.77102705498234 H 0.0 **** 0.06
26879 H 115.55566507764271 201.7578857005443 124.02601996031356 H 0.0 **** 0.06
26880 H 116.78180508212418 202.2192409173141 125.23042184105617 H 0.0 **** 0.06
26881 C 27.325622429825515 95.10787885845843 127.6353529411412 C 0.0 **** -0.24
26882 H 27.81025527720891 95.61423115737955 128.47132539357648 H 0.0 **** 0.06
26883 H 28.06382788182667 94.89823919675388 126.86027842416422 H 0.0 **** 0.06
26884 H 26.543322841037735 95.74892954837952 127.22846482479429 H 0.0 **** 0.06
26885 H 26.886150612170624 94.1727519174355 127.98229773993359 H 0.0 **** 0.06
26886 C 49.21991899792167 131.9520347422606 138.40593624038024 C 0.0 **** -0.24
26887 H 49.17287904559893 131.97270442483546 137.3170966850634 H 0.0 **** 0.06
26888 H 48.46056548216805 132.61929904525368 138.81509289555183 H 0.0 **** 0.06
26889 H 50.206512381872216 132.28033515520985 138.73289939146744 H 0.0 **** 0.06
26890 H 49.038953781000686 130.93698783528447 138.75872077850207 H 0.0 **** 0.06
26891 C 248.17434082828012 248.06963891224677 242.86332201832045 C 0.0 **** -0.24
26892 H 247.75008062320467 248.80469482312242 243.54687790482447 H 0.0 **** 0.06
26893 H 248.05842015938268 248.41842287830994 241.83704880189356 H 0.0 **** 0.06
26894 H 247.65637785089118 247.1187999146161 242.98600093724832 H 0.0 **** 0.06
26895 H 249.2334876665616 247.93713832222568 243.0855384527987 H 0.0 **** 0.06
26896 C 174.33451329379358 26.849931355223987 196.75703567224426 C 0.0 **** -0.24
26897 H 175.4204965834473 26.936316456607912 196.78635245593554 H 0.0 **** 0.06
26898 H 173.91859012790812 27.684881322058146 196.19372400389568 H 0.0 **** 0.06
26899 H 173.94114628547396 26.864960507196074 197.773888217448 H 0.0 **** 0.06
26900 H 174.0577154598971 25.912273516695706 196.27473979912807 H 0.0 **** 0.06
26901 C 137.04450131524763 72.62942242115216 41.099946314195094 C 0.0 **** -0.24
26902 H 136.89766242310122 72.00994872456556 40.21489702003224 H 0.0 **** 0.06
26903 H 137.5964797131942 72.06418838233643 41.85158645990829 H 0.0 **** 0.06
26904 H 136.0750969005563 72.92111392128396 41.50328080663 H 0.0 **** 0.06
26905 H 137.61005870983928 73.5209268222078 40.8289992624684 H 0.0 **** 0.06
26906 C 77.46291497854824 90.86992591331804 141.30565795359473 C 0.0 **** -0.24
26907 H 78.49906362338595 90.56497524716809 141.15992654490304 H 0.0 **** 0.06
26908 H 77.43541344265682 91.88879491386075 141.69344939923758 H 0.0 **** 0.06
26909 H 76.98289659581854 90.19707642982527 142.01690720862982 H 0.0 **** 0.06
26910 H 76.93466332094187 90.82832614582742 140.35310757963717 H 0.0 **** 0.06
26911 C 22.00862680324977 103.95415189253245 141.10314049537055 C 0.0 **** -0.24
26912 H 21.472874904405586 103.83821515081058 140.16125242388713 H 0.0 **** 0.06
26913 H 22.896183466758174 104.56675942920634 140.94296324992536 H 0.0 **** 0.06
26914 H 22.305463558306627 102.97338719780882 141.475237427686 H 0.0 **** 0.06
26915 H 21.359013550724598 104.43830776999604 141.83288105579504 H 0.0 **** 0.06
26916 C 65.73058441130283 38.49808838264414 184.37477001832494 C 0.0 **** -0.24
26917 H 65.8968020212121 38.8419274079514 185.39623612692824 H 0.0 **** 0.06
26918 H 64.92964752045333 39.082532762786 183.92128965661283 H 0.0 **** 0.06
26919 H 65.44970982640078 37.445214748417754 184.38811700972826 H 0.0 **** 0.06
26920 H 66.64476339337571 38.62279702521414 183.7960800380086 H 0.0 **** 0.06
26921 C 20.812020709970056 26.773679623150343 67.23342545060518 C 0.0 **** -0.24
26922 H 21.85224575428579 26.466441029262853 67.33144000499135 H 0.0 **** 0.06
26923 H 20.19420805395228 25.901975121388006 67.0180296491059 H 0.0 **** 0.06
26924 H 20.720704095272595 27.493997696189496 66.4204286983657 H 0.0 **** 0.06
26925 H 20.479930805810767 27.233108904523448 68.16440751266137 H 0.0 **** 0.06
26926 C 164.78781491975533 246.41284429552184 213.6585543748282 C 0.0 **** -0.24
26927 H 164.24396922591612 246.97621886764566 214.4159119579129 H 0.0 **** 0.06
26928 H 164.1032218799738 245.7343802861863 213.14844993695482 H 0.0 **** 0.06
26929 H 165.5815894013547 245.83733123216246 214.13527689343712 H 0.0 **** 0.06
26930 H 165.22293153051905 247.1022553160209 212.93519170879017 H 0.0 **** 0.06
26931 C 51.834702802719605 60.472890762991796 39.95779005596202 C 0.0 **** -0.24
26932 H 52.255645573580736 59.50401157992829 39.69018049744659 H 0.0 **** 0.06
26933 H 52.59357079992836 61.24585923715284 39.830245221967374 H 0.0 **** 0.06
26934 H 51.5069752886275 60.45321993817453 40.99717367344388 H 0.0 **** 0.06
26935 H 50.98245131870992 60.68994862377531 39.31267078252537 H 0.0 **** 0.06
26936 C 158.74252870014868 61.384677676835935 104.59519084958742 C 0.0 **** -0.24
26937 H 158.55208897983047 60.66941043276992 103.7947671768197 H 0.0 **** 0.06
26938 H 159.80979695487295 61.60163690398187 104.64185708248891 H 0.0 **** 0.06
26939 H 158.41572056574446 60.961026963330795 105.54581438362064 H 0.0 **** 0.06
26940 H 158.1920515156238 62.30437420688472 104.39914564261204 H 0.0 **** 0.06
26941 C 194.23813723291977 185.44591395879647 133.02904470895234 C 0.0 **** -0.24
26942 H 193.72041098343408 186.30462188834196 133.456069050343 H 0.0 **** 0.06
26943 H 193.93192408705528 184.5400733989474 133.553555882683 H 0.0 **** 0.06
26944 H 195.31443340060503 185.58068015600384 133.1358257903875 H 0.0 **** 0.06
26945 H 193.98531584244176 185.35720836642145 131.97200675252626 H 0.0 **** 0.06
26946 C 19.287690376428074 44.4672444753501 61.681131799964874 C 0.0 **** -0.24
26947 H 18.327493614784714 44.09283404850541 62.03540792965259 H 0.0 **** 0.06
26948 H 19.720256282699722 43.752552561714 60.98081203247665 H 0.0 **** 0.06
26949 H 19.960749320610333 44.59936921690971 62.528307271782836 H 0.0 **** 0.06
26950 H 19.14149498465622 45.42486163179487 61.180047104861046 H 0.0 **** 0.06
26951 C 47.63748079549309 8.013732102055968 35.901229128373785 C 0.0 **** -0.24
26952 H 46.90829490528763 8.602636271020884 35.34570651241553 H 0.0 **** 0.06
26953 H 48.64204870205231 8.366055838490155 35.66792273928388 H 0.0 **** 0.06
26954 H 47.545364205092554 6.964217016110041 35.622635908561705 H 0.0 **** 0.06
26955 H 47.45318026031309 8.122619666605345 36.970540304431225 H 0.0 **** 0.06
26956 C 184.90359517365675 37.59516573888871 16.793101682739234 C 0.0 **** -0.24
26957 H 185.19346501839138 37.66211999785109 17.841352684133838 H 0.0 **** 0.06
26958 H 183.83131915750317 37.77058620575936 16.700325692892804 H 0.0 **** 0.06
26959 H 185.142530268798 36.60159920957926 16.412308887975897 H 0.0 **** 0.06
26960 H 185.44614697952886 38.34487823797076 16.21669706679762 H 0.0 **** 0.06
26961 C 214.3630233255247 9.01180331402054 211.93221530913274 C 0.0 **** -0.24
26962 H 214.61000719115444 8.32069340661917 211.12705779443365 H 0.0 **** 0.06
26963 H 215.1540185333592 9.7564167469112 212.02730997852217 H 0.0 **** 0.06
26964 H 214.268171012481 8.46074822735703 212.8683023281446 H 0.0 **** 0.06
26965 H 213.42047575942541 9.511061872319672 211.70751429205043 H 0.0 **** 0.06
26966 C 196.66398291932762 149.6385443380376 153.06160708697976 C 0.0 **** -0.24
26967 H 195.85597251252761 149.23252330751427 153.67038182088933 H 0.0 **** 0.06
26968 H 197.22229018977026 148.82031539395575 152.60670494775556 H 0.0 **** 0.06
26969 H 197.3312062415078 150.2281328901591 153.6916856242543 H 0.0 **** 0.06
26970 H 196.24614600849065 150.27387646168512 152.28073003091183 H 0.0 **** 0.06
26971 C 121.25786858394198 188.3912736136994 119.39690870757227 C 0.0 **** -0.24
26972 H 122.27659571967055 188.76458119281324 119.505564364592 H 0.0 **** 0.06
26973 H 120.55366083858209 189.21134042998455 119.54528141377222 H 0.0 **** 0.06
26974 H 121.07430937163119 187.61585552881013 120.13927543535456 H 0.0 **** 0.06
26975 H 121.12791687366365 187.97691423982732 118.39730107036956 H 0.0 **** 0.06
26976 C 134.70858929113487 202.66308276129269 146.7465118926297 C 0.0 **** -0.24
26977 H 135.04622577635587 203.16565068842604 147.65310753307625 H 0.0 **** 0.06
26978 H 134.17805884873331 201.74891411536487 147.01360496529406 H 0.0 **** 0.06
26979 H 135.5707189306574 202.4157687094455 146.12666205697843 H 0.0 **** 0.06
26980 H 134.04093958125762 203.32364853669839 146.19354418279818 H 0.0 **** 0.06
26981 C 51.0603635117337 105.04481853400358 45.72144504307957 C 0.0 **** -0.24
26982 H 50.59495859464565 105.3223264383804 44.77640949792831 H 0.0 **** 0.06
26983 H 51.11582688072619 103.95771773045306 45.793000930325405 H 0.0 **** 0.06
26984 H 50.4663232550773 105.43395059244662 46.54758787039461 H 0.0 **** 0.06
26985 H 52.065697893831924 105.4635863647969 45.76823023922415 H 0.0 **** 0.06
26986 C 218.6146675236186 125.6045982147163 194.47022440135987 C 0.0 **** -0.24
26987 H 217.95514556476496 125.36894275201169 193.6342639538995 H 0.0 **** 0.06
26988 H 219.5149563247417 124.9935492449361 194.40566590210892 H 0.0 **** 0.06
26989 H 218.09966624874485 125.39625150524105 195.40833522118328 H 0.0 **** 0.06
26990 H 218.88695707027009 126.65905543925555 194.43170261996465 H 0.0 **** 0.06
26991 C 128.182512193184 100.25969287980223 103.34442357570072 C 0.0 **** -0.24
26992 H 127.68997585037766 100.81379585815688 102.54560920065123 H 0.0 **** 0.06
26993 H 127.44675963034908 99.9767448241899 104.09725100182897 H 0.0 **** 0.06
26994 H 128.94896341124178 100.88427425690216 103.8013034123181 H 0.0 **** 0.06
26995 H 128.64414958966856 99.3614999554404 102.93154953257874 H 0.0 **** 0.06
26996 C 52.14875264545398 30.687236679670278 60.38227619244398 C 0.0 **** -0.24
26997 H 52.65510625842137 30.28503001471283 61.25960189253189 H 0.0 **** 0.06
26998 H 51.176096690725714 31.084613272272023 60.674989057708984 H 0.0 **** 0.06
26999 H 52.011264475340866 29.894728637490687 59.64790669595462 H 0.0 **** 0.06
27000 H 52.75180291735094 31.484496584119753 59.94894078730593 H 0.0 **** 0.06
27001 C 242.07992034705697 78.26682926695764 156.42964968288805 C 0.0 **** -0.24
27002 H 242.41972622120522 77.37506585629563 156.957330994501 H 0.0 **** 0.06
27003 H 241.68745727093523 78.98591774223738 157.14830541589345 H 0.0 **** 0.06
27004 H 241.29724650851313 77.9950385928268 155.72209823529758 H 0.0 **** 0.06
27005 H 242.91840940359845 78.71059494852256 155.89159698610626 H 0.0 **** 0.06
27006 C 71.77245268976992 182.15691131637243 191.12886142079117 C 0.0 **** -0.24
27007 H 72.26270709523703 181.47782242450177 191.827408110219 H 0.0 **** 0.06
27008 H 72.5164148681676 182.81382351173522 190.67884452315084 H 0.0 **** 0.06
27009 H 71.03457614005305 182.75520577954694 191.66346922371278 H 0.0 **** 0.06
27010 H 71.27647658233298 181.57946196648663 190.3492015523228 H 0.0 **** 0.06
27011 C 64.5760801828745 226.218886452217 102.08065851416785 C 0.0 **** -0.24
27012 H 63.50949375800869 226.26713465269407 101.86094488343787 H 0.0 **** 0.06
27013 H 64.96812235067893 227.229914402583 102.19746178926863 H 0.0 **** 0.06
27014 H 65.09331793271474 225.72108564393935 101.26047314859045 H 0.0 **** 0.06
27015 H 64.73133922889477 225.65934110818733 103.00231093857275 H 0.0 **** 0.06
27016 C 161.37430465143595 189.71812085293965 130.54695945724913 C 0.0 **** -0.24
27017 H 160.3393902752146 189.4803676764294 130.79503654179626 H 0.0 **** 0.06
27018 H 161.58262337981233 189.40854345613383 129.5232824073118 H 0.0 **** 0.06
27019 H 162.04070765037451 189.18979816991606 131.22899666846723 H 0.0 **** 0.06
27020 H 161.53222966749397 190.7920264933917 130.64271397020414 H 0.0 **** 0.06
27021 C 151.56046830425564 165.7739642587611 58.71660771418371 C 0.0 **** -0.24
27022 H 152.32773934419805 165.05969166255136 59.0186861782922 H 0.0 **** 0.06
27023 H 150.64760523512177 165.58628002682673 59.282903772956246 H 0.0 **** 0.06
27024 H 151.35889894926416 165.6605433100386 57.65214257255039 H 0.0 **** 0.06
27025 H 151.91063214447087 166.78630463898648 58.9143595625728 H 0.0 **** 0.06
27026 C 144.23599228030807 135.39564669359933 67.68458248827383 C 0.0 **** -0.24
27027 H 144.79987657830677 134.61422376313502 67.17445184004714 H 0.0 **** 0.06
27028 H 144.24654371081365 136.3033275386081 67.08062741846311 H 0.0 **** 0.06
27029 H 144.69219620390353 135.59748463196158 68.65357990468021 H 0.0 **** 0.06
27030 H 143.20675485193732 135.06628030082032 67.82811529786952 H 0.0 **** 0.06
27031 C 193.5773787172572 246.02026141005467 224.6143144504401 C 0.0 **** -0.24
27032 H 194.31115381288714 246.2695773125585 223.84704052905158 H 0.0 **** 0.06
27033 H 193.50346999407333 246.84344148095573 225.32564886555332 H 0.0 **** 0.06
27034 H 193.88922828902935 245.11603365103173 225.13493288289706 H 0.0 **** 0.06
27035 H 192.60618126713587 245.85568311000307 224.14760676321265 H 0.0 **** 0.06
27036 C 50.27756031151402 98.51615144592256 4.849944595845187 C 0.0 **** -0.24
27037 H 50.549416435972276 97.50063289523024 4.563771781139167 H 0.0 **** 0.06
27038 H 50.5859279572787 99.20921738365448 4.0668484487563035 H 0.0 **** 0.06
27039 H 50.775102800191775 98.776048489376 5.78318333680707 H 0.0 **** 0.06
27040 H 49.19693287097678 98.57784457620062 4.984940439766973 H 0.0 **** 0.06
27041 C 80.66525485564577 40.110004746669944 212.006658514947 C 0.0 **** -0.24
27042 H 80.8908230930995 40.51211242685176 212.99467519453043 H 0.0 **** 0.06
27043 H 79.6409626293619 39.73827287184221 211.9906144277886 H 0.0 **** 0.06
27044 H 81.35247345167201 39.29439300367184 211.78109775237309 H 0.0 **** 0.06
27045 H 80.77877919550113 40.89661328048041 211.26004695779903 H 0.0 **** 0.06
27046 C 113.33425299997967 100.76885505275729 200.171465931044 C 0.0 **** -0.24
27047 H 113.90354080869423 101.66812238363056 200.4078665082671 H 0.0 **** 0.06
27048 H 112.31686576401634 101.04592448872643 199.89456646761843 H 0.0 **** 0.06
27049 H 113.30911407336424 100.11524057109543 201.04313714682536 H 0.0 **** 0.06
27050 H 113.80862155745902 100.24789192708744 199.33950110774805 H 0.0 **** 0.06
27051 C 212.75110594952082 73.51686635582877 213.6542803358493 C 0.0 **** -0.24
27052 H 213.18590029587594 72.59772785011936 214.04665878840132 H 0.0 **** 0.06
27053 H 212.97723293477648 74.3423970489363 214.32990984981086 H 0.0 **** 0.06
27054 H 211.67072077199902 73.40113347948667 213.5710978067064 H 0.0 **** 0.06
27055 H 213.17097268648774 73.72653878295355 212.6707692987417 H 0.0 **** 0.06
27056 C 241.91520157998593 170.1285709845839 107.11481126723305 C 0.0 **** -0.24
27057 H 242.94425438700324 170.24183438666088 106.77548357948385 H 0.0 **** 0.06
27058 H 241.24700445500696 170.1234843070648 106.25350104465048 H 0.0 **** 0.06
27059 H 241.65518559210378 170.95893025315235 107.77115320412847 H 0.0 **** 0.06
27060 H 241.8135771977163 169.18930983468738 107.66003375656163 H 0.0 **** 0.06
27061 C 160.9938343632208 91.8776335843585 18.791804493473904 C 0.0 **** -0.24
27062 H 159.94732816255103 91.9826960350257 18.506663796998538 H 0.0 **** 0.06
27063 H 161.13515574869498 92.26085042386543 19.801989467213986 H 0.0 **** 0.06
27064 H 161.61840352241273 92.44071813115681 18.098327221173207 H 0.0 **** 0.06
27065 H 161.27442912059843 90.8240348589404 18.760167591661315 H 0.0 **** 0.06
27066 C 190.45387574343476 222.66027448484851 40.539042988757416 C 0.0 **** -0.24
27067 H 190.2995121470558 222.95114221263128 39.49958667804427 H 0.0 **** 0.06
27068 H 190.01452809321287 223.41164528730303 41.194759484754385 H 0.0 **** 0.06
27069 H 191.52190511368065 222.58240312593966 40.738837560365255 H 0.0 **** 0.06
27070 H 189.97854781058666 221.6959507739561 40.71982935490129 H 0.0 **** 0.06
27071 C 1.407319558298184 46.741591083920724 174.73738121740845 C 0.0 **** -0.24
27072 H 2.462415030294409 46.943401902049985 174.54999253813693 H 0.0 **** 0.06
27073 H 0.8527899179692611 47.680701547012234 174.7363821611825 H 0.0 **** 0.06
27074 H 1.2975787209102236 46.2555761561315 175.70700073591908 H 0.0 **** 0.06
27075 H 1.01765519470419 46.08732546159874 173.95726407750837 H 0.0 **** 0.06
27076 C 211.22348668925113 66.73450599131365 15.078851700454095 C 0.0 **** -0.24
27077 H 210.75602946293023 65.91417850254163 15.62278102866361 H 0.0 **** 0.06
27078 H 211.23998611917935 67.6242374409178 15.708157892763609 H 0.0 **** 0.06
27079 H 210.65424023037875 66.94023149402284 14.172984135889635 H 0.0 **** 0.06
27080 H 212.2437960138732 66.4575974263756 14.812391377464962 H 0.0 **** 0.06
27081 C 68.14270060983003 148.2844005409713 240.6303479774183 C 0.0 **** -0.24
27082 H 67.2327854261992 148.39133053270805 240.0412283899447 H 0.0 **** 0.06
27083 H 69.00702741257766 148.27310234791793 239.96551633818603 H 0.0 **** 0.06
27084 H 68.10353600649091 147.35076392292575 241.19173409312162 H 0.0 **** 0.06
27085 H 68.22832947172353 149.12146701099132 241.32350668617357 H 0.0 **** 0.06
27086 C 232.92776897201355 117.06133707561867 199.23444551755952 C 0.0 **** -0.24
27087 H 232.8687316372105 116.73959520332266 200.27451010014462 H 0.0 **** 0.06
27088 H 232.88251694302926 116.18972970021872 198.5815110600805 H 0.0 **** 0.06
27089 H 233.86661151803435 117.59000385573952 199.06975587675345 H 0.0 **** 0.06
27090 H 232.0923237511453 117.72643015776532 199.0130227179959 H 0.0 **** 0.06
27091 C 95.43026899373766 53.84316133045817 140.51045917102974 C 0.0 **** -0.24
27092 H 95.1573337003409 53.63233134323045 141.54348559447058 H 0.0 **** 0.06
27093 H 94.7878999599491 53.27074267048337 139.84093510448332 H 0.0 **** 0.06
27094 H 96.47035664252999 53.56279315449339 140.3445648193774 H 0.0 **** 0.06
27095 H 95.30542635982599 54.90784478322493 140.3119244496373 H 0.0 **** 0.06
27096 C 41.02262159665784 95.35759052328123 101.06743732173524 C 0.0 **** -0.24
27097 H 41.57740329586585 94.42309209474138 100.97719025440256 H 0.0 **** 0.06
27098 H 40.41431628538311 95.50612496494341 100.17516452802784 H 0.0 **** 0.06
27099 H 41.722891241842945 96.18623875179986 101.17272790366826 H 0.0 **** 0.06
27100 H 40.37743921956255 95.31331042916003 101.94457558771035 H 0.0 **** 0.06
27101 C 190.93315031477715 87.67951931451694 215.8376692366432 C 0.0 **** -0.24
27102 H 191.59355367058578 87.57331173583157 214.97713165738625 H 0.0 **** 0.06
27103 H 191.28902116910723 88.49153532522712 216.4716751524083 H 0.0 **** 0.06
27104 H 190.92597409081384 86.74950335159241 216.4066651819294 H 0.0 **** 0.06
27105 H 189.92285870863253 87.9020883550227 215.4938299352043 H 0.0 **** 0.06
27106 C 167.34805853093204 160.54587110252285 208.34248813295955 C 0.0 **** -0.24
27107 H 166.90721362198545 159.65114763098552 207.90197564414257 H 0.0 **** 0.06
27108 H 167.76677614469716 160.3011957997131 209.31917341232466 H 0.0 **** 0.06
27109 H 166.57925365754497 161.31052050627451 208.45717000961167 H 0.0 **** 0.06
27110 H 168.13804842454496 160.92016631533508 207.69068168947732 H 0.0 **** 0.06
27111 C 33.5828070518708 84.17972235021995 168.04779274185736 C 0.0 **** -0.24
27112 H 33.00066793317909 85.03935660530772 168.37788447230392 H 0.0 **** 0.06
27113 H 34.5825893905382 84.23096860650415 168.47853821421435 H 0.0 **** 0.06
27114 H 33.65450840829048 84.18569341805116 166.959875080859 H 0.0 **** 0.06
27115 H 33.092788048950425 83.26196897836556 168.374017666095 H 0.0 **** 0.06
27116 C 87.02519395434788 54.62559110035804 115.80812596009451 C 0.0 **** -0.24
27117 H 85.98384768250384 54.36514656994055 115.99976929053074 H 0.0 **** 0.06
27118 H 87.11070363656378 55.074504244405375 114.81835141194668 H 0.0 **** 0.06
27119 H 87.638199887486 53.725489608186734 115.85391458668013 H 0.0 **** 0.06
27120 H 87.36686807657921 55.33641011791073 116.56047739852184 H 0.0 **** 0.06
27121 C 232.25628437326316 37.27534404670328 51.11272069564693 C 0.0 **** -0.24
27122 H 231.43799602859156 37.06182284838884 50.42469492838451 H 0.0 **** 0.06
27123 H 232.31073503761866 38.35041502977239 51.289997585554886 H 0.0 **** 0.06
27124 H 233.19444130705403 36.93013239078893 50.67977031033881 H 0.0 **** 0.06
27125 H 232.0804583288185 36.75968947684184 52.05754350939657 H 0.0 **** 0.06
27126 C 121.54675588594122 30.399277908045747 53.836307698723715 C 0.0 **** -0.24
27127 H 121.54024336686211 30.391760935244378 52.74637391596367 H 0.0 **** 0.06
27128 H 122.50756049658358 30.774214607599475 54.18967796534338 H 0.0 **** 0.06
27129 H 121.39372187281398 29.385362538451034 54.207934927649944 H 0.0 **** 0.06
27130 H 120.7480980544006 31.04428065122933 54.20134425721119 H 0.0 **** 0.06
27131 C 126.48761475530699 164.5202956270536 197.18096510093687 C 0.0 **** -0.24
27132 H 127.504891419124 164.84534377626207 197.40111156916805 H 0.0 **** 0.06
27133 H 126.51140922076974 163.75454181888836 196.40561518132333 H 0.0 **** 0.06
27134 H 125.90148839912342 165.3709816226536 196.83482237019797 H 0.0 **** 0.06
27135 H 126.03489618337392 164.10968518769238 198.08393826703025 H 0.0 **** 0.06
27136 C 233.80164721615435 57.5365447938411 47.03674644721744 C 0.0 **** -0.24
27137 H 232.89715775156859 57.85502630771029 46.519208143542386 H 0.0 **** 0.06
27138 H 233.59833097898846 56.62114330551296 47.59316283775294 H 0.0 **** 0.06
27139 H 234.12036435752603 58.31791647406632 47.726165944737176 H 0.0 **** 0.06
27140 H 234.59076689376 57.35178740149772 46.307497234142744 H 0.0 **** 0.06
27141 C 239.5819669483789 3.6001957127522246 23.405184036084393 C 0.0 **** -0.24
27142 H 239.94035312874456 4.603053433309725 23.174764204328028 H 0.0 **** 0.06
27143 H 238.8888453660876 3.6466775125097968 24.245334312345022 H 0.0 **** 0.06
27144 H 240.42795098265444 2.963288295823901 23.666412938501736 H 0.0 **** 0.06
27145 H 239.07212441444497 3.187854553343982 22.534103710187622 H 0.0 **** 0.06
27146 C 177.61551068324798 152.61982774094855 209.22372996534298 C 0.0 **** -0.24
27147 H 178.7040992835451 152.5717949790955 209.266018167694 H 0.0 **** 0.06
27148 H 177.30409905720526 153.65150425848998 209.06067190939348 H 0.0 **** 0.06
27149 H 177.19995266968635 152.2584676771792 210.16424631723677 H 0.0 **** 0.06
27150 H 177.25687658058996 151.9972484814998 208.4039255879968 H 0.0 **** 0.06
27151 C 183.20521199668178 208.54139727393817 181.84252318224742 C 0.0 **** -0.24
27152 H 183.27905427763326 209.12736309269417 180.92579696549026 H 0.0 **** 0.06
27153 H 182.55009847951212 207.6862194593388 181.67476514405132 H 0.0 **** 0.06
27154 H 182.79632538096823 209.1636380672162 182.6387026226938 H 0.0 **** 0.06
27155 H 184.1969353590639 208.19006478488302 182.12919343479115 H 0.0 **** 0.06
27156 C 59.69558785327851 98.94966947754457 237.61716885515636 C 0.0 **** -0.24
27157 H 59.85411467622629 98.19839699697988 238.3910522305161 H 0.0 **** 0.06
27158 H 59.766860215874715 98.48109329757094 236.63526143100904 H 0.0 **** 0.06
27159 H 60.45558191480026 99.72638368179187 237.7040575400988 H 0.0 **** 0.06
27160 H 58.707113095680796 99.39298239686616 237.73782489036228 H 0.0 **** 0.06
27161 C 65.67625770358976 244.3504101981034 29.263859813088203 C 0.0 **** -0.24
27162 H 66.27421608685503 243.45456494213934 29.43464807260611 H 0.0 **** 0.06
27163 H 64.63275326648557 244.14019707495456 29.499279662837097 H 0.0 **** 0.06
27164 H 65.76081783377248 244.64931016196854 28.21916753169208 H 0.0 **** 0.06
27165 H 66.03842292951862 245.15577964087478 29.902983416462206 H 0.0 **** 0.06
27166 C 174.46813515702075 239.0876299146252 214.39076446392198 C 0.0 **** -0.24
27167 H 174.25772294535477 239.04260228336454 215.45905458239392 H 0.0 **** 0.06
27168 H 173.68995906892738 239.66393742125354 213.89140868647 H 0.0 **** 0.06
27169 H 174.49187833013775 238.07703465614043 213.9824140515101 H 0.0 **** 0.06
27170 H 175.43440895859936 239.56676251942184 214.23156816601482 H 0.0 **** 0.06
27171 C 227.5133467791734 130.72928306626955 8.116284367639167 C 0.0 **** -0.24
27172 H 226.49683352111134 130.44965924896985 7.840538324316796 H 0.0 **** 0.06
27173 H 227.85337929199264 131.54152246353436 7.474120356518895 H 0.0 **** 0.06
27174 H 228.17220561104992 129.8688597220248 7.993551768599133 H 0.0 **** 0.06
27175 H 227.53112162439356 131.0549424778877 9.15632598753109 H 0.0 **** 0.06
27176 C 219.52020527174398 79.30815658207399 222.29860320835132 C 0.0 **** -0.24
27177 H 219.27338387645784 78.8194277986185 223.24061113553847 H 0.0 **** 0.06
27178 H 218.95703870486693 80.23885576558084 222.214294016474 H 0.0 **** 0.06
27179 H 219.2614075053379 78.65006470314603 221.46843914320564 H 0.0 **** 0.06
27180 H 220.58799600343565 79.52569313464986 222.2711555832992 H 0.0 **** 0.06
27181 C 42.31180239173972 100.67622356504995 221.32667352810392 C 0.0 **** -0.24
27182 H 41.80217326867506 100.69166087091068 220.36382909356746 H 0.0 **** 0.06
27183 H 43.377248723532716 100.50461718793684 221.17077631036034 H 0.0 **** 0.06
27184 H 41.90071037791279 99.87626182844107 221.94320102491736 H 0.0 **** 0.06
27185 H 42.16796363966648 101.63236790875908 221.82935033422757 H 0.0 **** 0.06
27186 C 94.3877216563694 183.79984557830062 5.41546065190974 C 0.0 **** -0.24
27187 H 95.19423507674338 184.07571388999872 4.736707133805538 H 0.0 **** 0.06
27188 H 93.58428799194687 184.53233751699497 5.340717952356982 H 0.0 **** 0.06
27189 H 94.76555719318475 183.77801544041648 6.438004210078191 H 0.0 **** 0.06
27190 H 94.00824804244616 182.81440456063177 5.147730688804515 H 0.0 **** 0.06
27191 C 10.1034414994743 69.65899534623597 68.11969236196828 C 0.0 **** -0.24
27192 H 10.50590088525776 69.6609279650194 67.10708174105892 H 0.0 **** 0.06
27193 H 9.193960880935833 69.0579224316663 68.14786923154324 H 0.0 **** 0.06
27194 H 9.872893893366154 70.68014152090953 68.42209912927078 H 0.0 **** 0.06
27195 H 10.83990532806041 69.23543891328399 68.80289185743626 H 0.0 **** 0.06
27196 C 162.86095029998734 54.731875107341494 143.73657104772184 C 0.0 **** -0.24
27197 H 163.06334822996357 53.72644121024919 144.1076658333175 H 0.0 **** 0.06
27198 H 163.58788456033005 54.98744168714728 142.96614917261638 H 0.0 **** 0.06
27199 H 162.9361420713017 55.443582734432454 144.55900099896223 H 0.0 **** 0.06
27200 H 161.85606974290127 54.76800598608713 143.31564920672042 H 0.0 **** 0.06
27201 C 232.1623551304245 73.25559448495247 184.17509067116677 C 0.0 **** -0.24
27202 H 231.73781481486793 72.97590884746316 183.21107094590985 H 0.0 **** 0.06
27203 H 231.38013079935493 73.2371107801169 184.93414799465296 H 0.0 **** 0.06
27204 H 232.58146146951455 74.25913433057156 184.10988934415332 H 0.0 **** 0.06
27205 H 232.94739117856386 72.54928084557588 184.4437596266031 H 0.0 **** 0.06
27206 C 136.1697269123646 120.38071803625331 240.42679441893003 C 0.0 **** -0.24
27207 H 135.46794485076438 120.699778595932 239.65560062004937 H 0.0 **** 0.06
27208 H 135.9730438637268 120.93230294258973 241.34719403738322 H 0.0 **** 0.06
27209 H 137.18860103082454 120.5787318903391 240.09515364104368 H 0.0 **** 0.06
27210 H 136.0476190201532 119.31380132481465 240.6095071661299 H 0.0 **** 0.06
27211 C 183.99340015432574 175.85454942820292 79.58066102014564 C 0.0 **** -0.24
27212 H 183.23750694096034 176.34769845827876 78.96981320823892 H 0.0 **** 0.06
27213 H 184.74098189473366 176.58464253293153 79.89168380744013 H 0.0 **** 0.06
27214 H 184.47302845445765 175.06725023317745 79.00007491181435 H 0.0 **** 0.06
27215 H 183.5211628423757 175.42048671710467 80.46185796259152 H 0.0 **** 0.06
27216 C 199.48978780546872 150.03093058387137 1.8655514056315212 C 0.0 **** -0.24
27217 H 198.9687978116858 150.41364313506423 2.7431624234358196 H 0.0 **** 0.06
27218 H 199.82810275337596 149.01213935834232 2.059783286361238 H 0.0 **** 0.06
27219 H 200.35069517129372 150.6641055722813 1.6503572763418504 H 0.0 **** 0.06
27220 H 198.81335346215897 150.0331612577807 1.0114154897860033 H 0.0 **** 0.06
27221 C 53.87365683968616 67.91736732703387 36.07474763631545 C 0.0 **** -0.24
27222 H 53.43691609676638 68.50309046713357 35.26527033269548 H 0.0 **** 0.06
27223 H 54.41277173777141 68.58005839085385 36.751450854895566 H 0.0 **** 0.06
27224 H 54.562886424673735 67.18150094686544 35.6593576649136 H 0.0 **** 0.06
27225 H 53.08121419880419 67.40583855422966 36.62021764962995 H 0.0 **** 0.06
27226 C 108.17743013266463 59.367953026382025 103.74303369542025 C 0.0 **** -0.24
27227 H 108.71490303507116 60.29701558464768 103.55221646768382 H 0.0 **** 0.06
27228 H 108.5896017130635 58.8858450557523 104.62931867172071 H 0.0 **** 0.06
27229 H 108.28398563228544 58.70448515590482 102.88502619214375 H 0.0 **** 0.06
27230 H 107.1223626031676 59.585692187367925 103.90510998238875 H 0.0 **** 0.06
27231 C 77.77475994500765 110.56955408300445 133.39956280239866 C 0.0 **** -0.24
27232 H 76.88642076106285 109.95665488110308 133.24742592316042 H 0.0 **** 0.06
27233 H 78.53647451248875 110.29067794018337 132.67012699114238 H 0.0 **** 0.06
27234 H 78.1588956055248 110.40989206473625 134.4059317114832 H 0.0 **** 0.06
27235 H 77.51570406121547 111.62105133658292 133.27135923592155 H 0.0 **** 0.06
27236 C 177.75619907626566 37.344856446445945 235.35913995315747 C 0.0 **** -0.24
27237 H 177.2147649281543 37.00649129394709 236.24176254627656 H 0.0 **** 0.06
27238 H 177.0682195735173 37.423325946006344 234.51778134754636 H 0.0 **** 0.06
27239 H 178.5434819880826 36.62950238115492 235.11951784340954 H 0.0 **** 0.06
27240 H 178.20131716761895 38.320041893150716 235.55723033861847 H 0.0 **** 0.06
27241 C 200.8275168044112 132.10155698458806 93.04817516455245 C 0.0 **** -0.24
27242 H 201.2310649040222 133.11293675133936 93.07752568659402 H 0.0 **** 0.06
27243 H 199.74008743595442 132.1448055776823 92.98069550176041 H 0.0 **** 0.06
27244 H 201.1139592387021 131.56930036408244 93.95546464145019 H 0.0 **** 0.06
27245 H 201.22491352959833 131.5767368585193 92.17895410236127 H 0.0 **** 0.06
27246 C 202.05516014910643 154.93393799425752 218.99597223097652 C 0.0 **** -0.24
27247 H 202.67603344285598 154.0398181579762 218.95458834096087 H 0.0 **** 0.06
27248 H 201.3091922106768 154.82231338428113 219.7825841723336 H 0.0 **** 0.06
27249 H 201.55499531303786 155.07306967925558 218.03689033025387 H 0.0 **** 0.06
27250 H 202.68075192456246 155.80126954822256 219.20711075437822 H 0.0 **** 0.06
27251 C 141.41033989966522 167.08185578697774 60.75828751812281 C 0.0 **** -0.24
27252 H 141.11795668213352 166.91155579309694 61.79466174576126 H 0.0 **** 0.06
27253 H 141.45369397844914 168.15393491566752 60.56394672598577 H 0.0 **** 0.06
27254 H 140.67830916851184 166.6215008449263 60.09473879727997 H 0.0 **** 0.06
27255 H 142.38992017584667 166.6396726010123 60.58028732482376 H 0.0 **** 0.06
27256 C 126.1561053904554 185.48499025635374 55.65917238497508 C 0.0 **** -0.24
27257 H 127.0932860324539 185.52868393086948 56.21390554118216 H 0.0 **** 0.06
27258 H 125.48373381622613 186.26367331261775 56.020268965006636 H 0.0 **** 0.06
27259 H 125.69331529231894 184.5089036680601 55.80628074888844 H 0.0 **** 0.06
27260 H 126.35361914425337 185.63701573754645 54.5986724432785 H 0.0 **** 0.06
27261 C 55.56062453865539 12.021502171037312 48.624244269585944 C 0.0 **** -0.24
27262 H 55.737314389295165 10.956943979429326 48.466735113668705 H 0.0 **** 0.06
27263 H 55.790551410062875 12.566474901260108 47.707906482448465 H 0.0 **** 0.06
27264 H 56.19975364697146 12.37973772002735 49.4311109506198 H 0.0 **** 0.06
27265 H 54.51602422317927 12.181354434035939 48.889660913893266 H 0.0 **** 0.06
27266 C 235.73591784761274 7.291870186183473 103.65747877030299 C 0.0 **** -0.24
27267 H 234.88209701690366 7.235930549425348 102.98317742619437 H 0.0 **** 0.06
27268 H 236.0733577902061 8.325928790562358 103.73211564360378 H 0.0 **** 0.06
27269 H 236.54549015672384 6.671692893751938 103.27247828616382 H 0.0 **** 0.06
27270 H 235.44222538659503 6.933478143914641 104.64449875960503 H 0.0 **** 0.06
27271 C 213.41598502915716 194.55773634140988 245.32106517626386 C 0.0 **** -0.24
27272 H 213.9546224755406 194.19130358606748 244.44689911036622 H 0.0 **** 0.06
27273 H 213.95550240199384 194.27497959597568 246.22555630746513 H 0.0 **** 0.06
27274 H 212.41739681979595 194.12225010547328 245.3416050684871 H 0.0 **** 0.06
27275 H 213.33777474182085 195.64410291013547 245.26965110580898 H 0.0 **** 0.06
27276 C 231.64572294518257 73.69208211164272 51.34547506323376 C 0.0 **** -0.24
27277 H 232.30808836664642 72.82961837519562 51.26762953691721 H 0.0 **** 0.06
27278 H 230.87733021857895 73.4936654809791 52.09193069930578 H 0.0 **** 0.06
27279 H 231.175528038648 73.87735996183821 50.379145695020995 H 0.0 **** 0.06
27280 H 232.2234472668574 74.5670456303547 51.64203873275342 H 0.0 **** 0.06
27281 C 57.15032922180768 76.44364104347991 198.90991760117652 C 0.0 **** -0.24
27282 H 56.50415270946067 77.31326149005491 198.7883702142285 H 0.0 **** 0.06
27283 H 57.38282517003799 76.0248609005163 197.93046959272 H 0.0 **** 0.06
27284 H 56.64110428775848 75.69382819118732 199.51469790360585 H 0.0 **** 0.06
27285 H 58.073915647900776 76.74428778920341 199.40527628281836 H 0.0 **** 0.06
27286 C 32.24768325587132 20.166984257353363 149.3276677151409 C 0.0 **** -0.24
27287 H 32.716274323380446 21.034234622883275 148.8641898100472 H 0.0 **** 0.06
27288 H 31.3864933026602 20.48979336390181 149.91326033872463 H 0.0 **** 0.06
27289 H 32.96554192595073 19.67076902306124 149.97974664211608 H 0.0 **** 0.06
27290 H 31.921403432361274 19.47327780069635 148.55250424700992 H 0.0 **** 0.06
27291 C 211.89846543274504 53.402097416007194 11.272026417863287 C 0.0 **** -0.24
27292 H 212.31905877222607 52.64977633190628 10.605570276769981 H 0.0 **** 0.06
27293 H 212.29383461736268 53.25887109042401 12.278071150906413 H 0.0 **** 0.06
27294 H 210.8127277444995 53.304020811728435 11.290004948250996 H 0.0 **** 0.06
27295 H 212.1675494117946 54.396301163464216 10.913370171239094 H 0.0 **** 0.06
27296 C 127.01162288979106 36.16202155267243 71.11979109702861 C 0.0 **** -0.24
27297 H 126.61664537354298 37.17683502822078 71.06382727696652 H 0.0 **** 0.06
27298 H 127.8519372394504 36.06148885136318 70.43291225899026 H 0.0 **** 0.06
27299 H 126.23044956388912 35.45277583358612 70.84501788085265 H 0.0 **** 0.06
27300 H 127.34604621893334 35.95962184444099 72.13716613195498 H 0.0 **** 0.06
27301 C 150.69473995337805 89.32841290752299 71.69276470969007 C 0.0 **** -0.24
27302 H 151.55052939503878 89.90419867462288 71.34052650935715 H 0.0 **** 0.06
27303 H 150.48359378410257 89.59049481354188 72.7306538954783 H 0.0 **** 0.06
27304 H 150.91990081616615 88.26396678880403 71.62506967709993 H 0.0 **** 0.06
27305 H 149.8248819336859 89.55683227427593 71.07642373799933 H 0.0 **** 0.06
27306 C 11.906503875124685 136.70964875942826 213.5282359298838 C 0.0 **** -0.24
27307 H 12.797289646256758 136.0833055043779 213.5625782502559 H 0.0 **** 0.06
27308 H 11.019254208518447 136.08592939000843 213.63591946507756 H 0.0 **** 0.06
27309 H 11.867817792715726 137.2349659134745 212.57439850372185 H 0.0 **** 0.06
27310 H 11.941620332069164 137.43536076649633 214.34206361851966 H 0.0 **** 0.06
27311 C 205.83439425478525 179.96967548119 204.0452149756445 C 0.0 **** -0.24
27312 H 205.25699818692812 179.76909481840954 204.94760610254076 H 0.0 **** 0.06
27313 H 205.8511088392946 181.0429862464776 203.8563362014108 H 0.0 **** 0.06
27314 H 205.37497888184882 179.45844730516973 203.19989088077415 H 0.0 **** 0.06
27315 H 206.85400973131706 179.60841382047417 204.17895300569268 H 0.0 **** 0.06
27316 C 216.87305942563228 149.34995840687301 60.09024599511443 C 0.0 **** -0.24
27317 H 217.11223772423878 150.3918022884619 59.87941756463144 H 0.0 **** 0.06
27318 H 217.3731831059624 148.70901986225735 59.3648394566238 H 0.0 **** 0.06
27319 H 215.79571715572288 149.20390391228622 60.02352814866421 H 0.0 **** 0.06
27320 H 217.21299029101547 149.09592930185474 61.09513544524745 H 0.0 **** 0.06
27321 C 191.316862548716 136.49955563604996 38.368519921259505 C 0.0 **** -0.24
27322 H 190.30941595574595 136.86573786479042 38.17226880313375 H 0.0 **** 0.06
27323 H 191.27949585576744 135.72608230616035 39.13540277019369 H 0.0 **** 0.06
27324 H 191.94220767168736 137.32398495594256 38.712270340226965 H 0.0 **** 0.06
27325 H 191.73548972293645 136.08337702438783 37.452301486947334 H 0.0 **** 0.06
27326 C 170.40410325440274 217.10845270785467 1.1647266040535555 C 0.0 **** -0.24
27327 H 170.08567191486253 217.137597793737 0.1226188282807783 H 0.0 **** 0.06
27328 H 170.4462367714736 218.12386266469377 1.560545968166167 H 0.0 **** 0.06
27329 H 171.39266514501236 216.65180812582057 1.229516274796893 H 0.0 **** 0.06
27330 H 169.6932158630378 216.52066551214577 1.745181507811452 H 0.0 **** 0.06
27331 C 29.3965912158927 32.29205650264291 135.57677209121795 C 0.0 **** -0.24
27332 H 30.138439558993326 31.494170088540812 135.52861727261677 H 0.0 **** 0.06
27333 H 29.849713276190386 33.22945282391565 135.25285680496802 H 0.0 **** 0.06
27334 H 29.040012616686198 32.39539425389948 136.60150502173144 H 0.0 **** 0.06
27335 H 28.559153901827727 32.04722452366278 134.9230361956764 H 0.0 **** 0.06
27336 C 1.207328796544715 130.81035647346022 200.6857400119599 C 0.0 **** -0.24
27337 H 1.746734370265557 129.86516018286233 200.6248534951171 H 0.0 **** 0.06
27338 H 1.305589344014976 131.3451957853832 199.74134372897265 H 0.0 **** 0.06
27339 H 1.6242947301994093 131.41492576318453 201.4912870030059 H 0.0 **** 0.06
27340 H 0.1536452230194243 130.6149575246206 200.8867767100127 H 0.0 **** 0.06
27341 C 7.8284291970421975 246.46733437590024 216.72211794643962 C 0.0 **** -0.24
27342 H 8.155162635034117 245.6097550251108 216.13376304576812 H 0.0 **** 0.06
27343 H 6.750634655478649 246.41204499563253 216.87688740403755 H 0.0 **** 0.06
27344 H 8.07313895095919 247.3869857475803 216.19114708585687 H 0.0 **** 0.06
27345 H 8.33551940096686 246.45988182037163 217.68674717556743 H 0.0 **** 0.06
27346 C 86.34412422435989 12.014646285335616 227.05749650164586 C 0.0 **** -0.24
27347 H 85.93873511460532 11.089284770847499 227.4688799279848 H 0.0 **** 0.06
27348 H 86.24854439400195 12.812506771211133 227.7946421588121 H 0.0 **** 0.06
27349 H 85.79146430047578 12.283824725303646 226.15733676816913 H 0.0 **** 0.06
27350 H 87.3951982833342 11.87094968067781 226.80975638672336 H 0.0 **** 0.06
27351 C 244.6290570073073 51.127267207015706 11.834557551358415 C 0.0 **** -0.24
27352 H 244.45500498723806 52.15720196598946 12.144365306716253 H 0.0 **** 0.06
27353 H 243.72403691171513 50.541267815869645 11.996347274039437 H 0.0 **** 0.06
27354 H 245.4460887091109 50.70519852435095 12.420696447445465 H 0.0 **** 0.06
27355 H 244.89189464058273 51.10597115536498 10.777018226293904 H 0.0 **** 0.06
27356 C 27.89957916259081 187.15775045114867 117.16584408574835 C 0.0 **** -0.24
27357 H 27.996377059043397 186.1351240051817 117.5312081417224 H 0.0 **** 0.06
27358 H 27.164802764486097 187.18731648697116 116.3608359676262 H 0.0 **** 0.06
27359 H 28.86306435048138 187.50308229985393 116.79222025515361 H 0.0 **** 0.06
27360 H 27.573096154001433 187.8046076782374 117.98092515796509 H 0.0 **** 0.06
27361 C 92.68762871053812 88.37153125918456 86.95806049698095 C 0.0 **** -0.24
27362 H 93.61990875971199 87.80620219046372 86.95593228031939 H 0.0 **** 0.06
27363 H 91.84879413479504 87.68701835451873 87.08124004012299 H 0.0 **** 0.06
27364 H 92.58596774670895 88.90618160185778 86.01359735345349 H 0.0 **** 0.06
27365 H 92.69856808488609 89.08562743003432 87.7808554578418 H 0.0 **** 0.06
27366 C 108.92036875349902 217.69185370685642 234.2959905777165 C 0.0 **** -0.24
27367 H 108.24189061355216 216.9035764734936 233.9703235962518 H 0.0 **** 0.06
27368 H 109.95061749797006 217.34976924409722 234.19709510259725 H 0.0 **** 0.06
27369 H 108.71713082171482 217.93726085616933 235.33902377772054 H 0.0 **** 0.06
27370 H 108.77064819963874 218.57729123459407 233.67811622958584 H 0.0 **** 0.06
27371 C 154.63789434152292 3.5913307953332065 131.96193654176295 C 0.0 **** -0.24
27372 H 153.93151118539387 2.7832885360591746 132.15318276195504 H 0.0 **** 0.06
27373 H 154.16552680269464 4.547773450147432 132.189918871709 H 0.0 **** 0.06
27374 H 154.93390675256185 3.574049376618774 130.9125678821343 H 0.0 **** 0.06
27375 H 155.5185868705109 3.461220719131589 132.59040420269093 H 0.0 **** 0.06
27376 C 206.9108005102731 219.8741683659688 1.0612483509524395 C 0.0 **** -0.24
27377 H 205.9734557313049 220.12579308872176 0.5639734329213297 H 0.0 **** 0.06
27378 H 207.7465012423936 220.12421978692436 0.40762449682556223 H 0.0 **** 0.06
27379 H 206.92843475749157 218.80804498133102 1.2834543670923892 H 0.0 **** 0.06
27380 H 206.99189771691547 220.44037645836062 1.989295877499302 H 0.0 **** 0.06
27381 C 65.53334775776477 74.03692978806652 164.316454721232 C 0.0 **** -0.24
27382 H 64.58498847040491 74.03669454520085 164.85383277842988 H 0.0 **** 0.06
27383 H 65.55552659033228 74.8733184130729 163.61795652166865 H 0.0 **** 0.06
27384 H 65.63886235490759 73.10110113743224 163.76717430058096 H 0.0 **** 0.06
27385 H 66.3531916449291 74.13399948079964 165.02809440777543 H 0.0 **** 0.06
27386 C 119.14671594170898 65.23972412391299 59.35591048236435 C 0.0 **** -0.24
27387 H 119.68338956135744 64.37618383636422 58.962457599637816 H 0.0 **** 0.06
27388 H 119.2220822819256 66.06722345322245 58.65116277283269 H 0.0 **** 0.06
27389 H 119.58314827885374 65.53301207148291 60.31064896127907 H 0.0 **** 0.06
27390 H 118.09802315647298 64.97902891080363 59.50040277253731 H 0.0 **** 0.06
27391 C 246.01874545170543 48.2508827440722 122.03868031467789 C 0.0 **** -0.24
27392 H 246.68158700306984 47.87441122024674 121.26017416221379 H 0.0 **** 0.06
27393 H 246.03005805884985 49.34134813198888 122.02957846661357 H 0.0 **** 0.06
27394 H 246.35923310873787 47.89165678470299 123.01048196468383 H 0.0 **** 0.06
27395 H 245.00410363616422 47.896114839350105 121.8544866652004 H 0.0 **** 0.06
27396 C 248.42431675818773 178.31111732067487 21.724891064537474 C 0.0 **** -0.24
27397 H 249.31303588788117 177.94384318382015 22.23893930574988 H 0.0 **** 0.06
27398 H 247.69354644867647 177.50601423878976 21.641504244719954 H 0.0 **** 0.06
27399 H 248.69890231521464 178.6572134685611 20.728412365416517 H 0.0 **** 0.06
27400 H 247.9930829245912 179.13712901071744 22.290222503025092 H 0.0 **** 0.06
27401 C 21.387858389834975 240.1560854286173 174.9335354382814 C 0.0 **** -0.24
27402 H 21.303651499524022 239.19846676673893 174.41898585396112 H 0.0 **** 0.06
27403 H 21.907480005504382 240.8680383360442 174.29188054032065 H 0.0 **** 0.06
27404 H 21.949279673318202 240.02220204516777 175.85847162863953 H 0.0 **** 0.06
27405 H 20.39135549694953 240.53257436441413 175.16407964856796 H 0.0 **** 0.06
27406 C 217.43770724340925 126.97744787782676 54.141289197865035 C 0.0 **** -0.24
27407 H 217.83722694840617 126.18015323379629 54.7674894999586 H 0.0 **** 0.06
27408 H 216.96197329114028 127.73006395329563 54.77090243551086 H 0.0 **** 0.06
27409 H 216.70133847388553 126.5636138938084 53.451641427028036 H 0.0 **** 0.06
27410 H 218.2478845783987 127.43642067742402 53.575153861750636 H 0.0 **** 0.06
27411 C 179.8369272254272 208.994793963758 144.0564747480638 C 0.0 **** -0.24
27412 H 178.91958918051768 209.09515534791421 144.6376830458961 H 0.0 **** 0.06
27413 H 179.59022157332817 208.9503198565253 142.99534942505463 H 0.0 **** 0.06
27414 H 180.35263794509984 208.08039001465 144.34955739753926 H 0.0 **** 0.06
27415 H 180.48140675866787 209.8524678815236 144.2456417056146 H 0.0 **** 0.06
27416 C 216.378701975094 110.45237443860512 139.72112785145808 C 0.0 **** -0.24
27417 H 215.53319234216724 110.2126066689876 140.3672992404557 H 0.0 **** 0.06
27418 H 216.41956162029965 109.73807520343311 138.8982787343284 H 0.0 **** 0.06
27419 H 217.30269251791188 110.3966397685879 140.2970937334804 H 0.0 **** 0.06
27420 H 216.25790417816035 111.45946349983078 139.32396532926558 H 0.0 **** 0.06
27421 C 103.24176552240777 80.549638928424 2.7028916574257664 C 0.0 **** -0.24
27422 H 103.23007090421555 80.00650309380586 1.7580280333265677 H 0.0 **** 0.06
27423 H 103.65498402439249 79.91236125614179 3.484403143269276 H 0.0 **** 0.06
27424 H 102.22479695148505 80.83800861587557 2.9687533090388314 H 0.0 **** 0.06
27425 H 103.85723425768839 81.44371766222287 2.5994555406138034 H 0.0 **** 0.06
27426 C 187.42050358664497 155.31040152642223 148.85312857174776 C 0.0 **** -0.24
27427 H 188.43910491517002 155.39511150531797 149.23158480515548 H 0.0 **** 0.06
27428 H 187.13413685290138 156.24362945681023 148.36838813525904 H 0.0 **** 0.06
27429 H 186.74112910438214 155.10567142197718 149.68058640554054 H 0.0 **** 0.06
27430 H 187.36909501563377 154.4947435384702 148.13101169260605 H 0.0 **** 0.06
27431 C 126.20171618126238 22.942228755687893 207.8992364661545 C 0.0 **** -0.24
27432 H 125.3008265641788 22.718913638578456 207.32887621815178 H 0.0 **** 0.06
27433 H 126.69818744851028 23.811337157522487 207.4691731883608 H 0.0 **** 0.06
27434 H 126.87461271317301 22.084745325864716 207.86492895829835 H 0.0 **** 0.06
27435 H 125.93308035254 23.151698156045228 208.93417604001687 H 0.0 **** 0.06
27436 C 121.48643713227267 94.89932621588892 183.61368830571723 C 0.0 **** -0.24
27437 H 121.89993564774383 94.92772425819149 184.62192691844228 H 0.0 **** 0.06
27438 H 122.2258047743644 94.48513757667664 182.92938587674814 H 0.0 **** 0.06
27439 H 121.22574395111559 95.90979414758166 183.30010388971073 H 0.0 **** 0.06
27440 H 120.59306817496383 94.27483866328029 183.60589264639782 H 0.0 **** 0.06
27441 C 45.78848062226406 67.68561886823056 61.24371969895296 C 0.0 **** -0.24
27442 H 45.47032900761573 66.79123131205233 60.707624536843554 H 0.0 **** 0.06
27443 H 45.230789066689496 68.54712205049324 60.875267567408486 H 0.0 **** 0.06
27444 H 46.85458367469316 67.84641443941425 61.08121849249582 H 0.0 **** 0.06
27445 H 45.598272626607354 67.55743597235261 62.309381293470295 H 0.0 **** 0.06
27446 C 119.58399081351772 129.1244705297408 158.36861141216463 C 0.0 **** -0.24
27447 H 118.7080678776158 128.933402610028 157.74866171315233 H 0.0 **** 0.06
27448 H 119.56838328060729 130.15979281828777 158.71029070680143 H 0.0 **** 0.06
27449 H 120.48743521472736 128.94614214290473 157.7857754441533 H 0.0 **** 0.06
27450 H 119.57011280489425 128.45756266689708 159.23080331345844 H 0.0 **** 0.06
27451 C 184.035353404049 15.71751628048952 130.92150788603178 C 0.0 **** -0.24
27452 H 184.6506206204188 15.932375195762361 131.79503491181848 H 0.0 **** 0.06
27453 H 183.30463132735736 14.948601477766786 131.17236410371422 H 0.0 **** 0.06
27454 H 184.66975833909783 15.366483578366726 130.1076854308941 H 0.0 **** 0.06
27455 H 183.5164867406018 16.6253663952849 130.61211633191138 H 0.0 **** 0.06
27456 C 29.278992242239468 116.00009721684555 41.25110967359889 C 0.0 **** -0.24
27457 H 28.9466399094957 115.06349311637237 40.8041698023587 H 0.0 **** 0.06
27458 H 29.711704827462626 116.63783294586491 40.479050384249064 H 0.0 **** 0.06
27459 H 30.029137402345583 115.79338230308176 42.01394697283979 H 0.0 **** 0.06
27460 H 28.428414761480013 116.50798830954588 41.70645367846571 H 0.0 **** 0.06
27461 C 40.148070191463404 50.32949990869707 223.8529551419751 C 0.0 **** -0.24
27462 H 40.91476345161854 50.2120602550863 224.61816160586955 H 0.0 **** 0.06
27463 H 39.5341623927072 49.429779481659835 223.81320674 H 0.0 **** 0.06
27464 H 40.62296963226416 50.48826301894283 222.88433686147346 H 0.0 **** 0.06
27465 H 39.52177826077107 51.18813985982044 224.09511505062443 H 0.0 **** 0.06
27466 C 137.07481578623108 115.32303434841575 45.91404048252245 C 0.0 **** -0.24
27467 H 137.72366378737988 114.60414120820727 46.4135467245014 H 0.0 **** 0.06
27468 H 136.34064310370889 115.7050193866537 46.62441607754431 H 0.0 **** 0.06
27469 H 136.55961322028628 114.83410647729943 45.08672831048818 H 0.0 **** 0.06
27470 H 137.67464738132463 116.14950378199623 45.5311319879187 H 0.0 **** 0.06
27471 C 85.28831515067745 207.4281157069593 121.14177210405029 C 0.0 **** -0.24
27472 H 86.03132935624896 207.8081185714824 121.84224142732762 H 0.0 **** 0.06
27473 H 84.68030867595584 206.6681813270569 121.63375629574679 H 0.0 **** 0.06
27474 H 85.79218745876497 206.98960219600428 120.27981608597193 H 0.0 **** 0.06
27475 H 84.6488382611445 208.24613760997232 120.81006433631899 H 0.0 **** 0.06
27476 C 209.07765062926137 164.98743928085187 176.67465229274507 C 0.0 **** -0.24
27477 H 208.25005724544798 164.9771811867969 175.96588115583262 H 0.0 **** 0.06
27478 H 209.22458984349288 163.98454820833288 177.07589278882557 H 0.0 **** 0.06
27479 H 208.85065246128968 165.67535320127416 177.48805921560202 H 0.0 **** 0.06
27480 H 209.9867344058054 165.31216877461372 176.1663895332245 H 0.0 **** 0.06
27481 C 21.859904558954923 38.58268607335482 205.11873486756332 C 0.0 **** -0.24
27482 H 22.936002140831306 38.75887306535141 205.1026812479114 H 0.0 **** 0.06
27483 H 21.335986102754106 39.51692060271098 204.9109588165452 H 0.0 **** 0.06
27484 H 21.5673830246987 38.21249778479513 206.10080479481104 H 0.0 **** 0.06
27485 H 21.60131610702348 37.8444198420855 204.35950067729277 H 0.0 **** 0.06
27486 C 65.24553003207396 218.91599127010903 248.37639740764877 C 0.0 **** -0.24
27487 H 65.25954575469723 219.21486032390274 249.4242854800365 H 0.0 **** 0.06
27488 H 66.21952567775907 219.11674760488114 247.92840303207282 H 0.0 **** 0.06
27489 H 64.4789137936881 219.48255115922228 247.8469788467387 H 0.0 **** 0.06
27490 H 65.0250571131829 217.85154796634228 248.30486628766084 H 0.0 **** 0.06
27491 C 216.37048149099388 158.4190515711118 231.6103397343295 C 0.0 **** -0.24
27492 H 215.312124492908 158.16409736507828 231.56021606811214 H 0.0 **** 0.06
27493 H 216.92727855173516 157.7960935782913 230.90882568456402 H 0.0 **** 0.06
27494 H 216.7388439279401 158.24554287568895 232.62167173789993 H 0.0 **** 0.06
27495 H 216.50469675197036 159.4686405445272 231.34986552491847 H 0.0 **** 0.06
27496 C 13.864549381876458 248.23152437204936 7.6684493637564515 C 0.0 **** -0.24
27497 H 12.905512731663663 248.2134248905345 8.187604153735208 H 0.0 **** 0.06
27498 H 13.70370669659944 248.47346907168696 6.6168539173145575 H 0.0 **** 0.06
27499 H 14.338629899071364 247.25392880048565 7.7484501043091285 H 0.0 **** 0.06
27500 H 14.507279797574242 248.98640040394508 8.121453070967362 H 0.0 **** 0.06
27501 C 182.30347328481167 116.66599326290313 162.99897359513858 C 0.0 **** -0.24
27502 H 182.73829459099156 116.82561666618864 163.9861429722567 H 0.0 **** 0.06
27503 H 182.97870510824256 117.05949716019273 162.2377947352815 H 0.0 **** 0.06
27504 H 181.3449030210835 117.18065659267583 162.93726241224965 H 0.0 **** 0.06
27505 H 182.15453903173506 115.59908492572015 162.8360081173699 H 0.0 **** 0.06
27506 C 187.3313616892467 215.56575004025888 180.7617205874164 C 0.0 **** -0.24
27507 H 186.52464131554405 214.9265676162174 180.4040550614567 H 0.0 **** 0.06
27508 H 187.27568136777649 216.53455080432602 180.2654521630877 H 0.0 **** 0.06
27509 H 188.2905036622853 215.09762528456412 180.54011855972007 H 0.0 **** 0.06
27510 H 187.23537966532876 215.70289157363024 181.83914354398632 H 0.0 **** 0.06
27511 C 140.38175059235226 25.433256486784558 44.54540827166349 C 0.0 **** -0.24
27512 H 140.1921299626235 26.506284351324922 44.55274181783429 H 0.0 **** 0.06
27513 H 141.02583865596142 25.184527542981954 43.70115412669125 H 0.0 **** 0.06
27514 H 139.43646137909911 24.898091263518282 44.45118479549973 H 0.0 **** 0.06
27515 H 140.87187110382598 25.145235706731185 45.47448602221567 H 0.0 **** 0.06
27516 C 194.94234842672557 18.775981070511506 87.49198842046783 C 0.0 **** -0.24
27517 H 193.88830461528377 18.532416647540146 87.63226530041192 H 0.0 **** 0.06
27518 H 195.55225685001494 18.124547873476757 88.11813143690662 H 0.0 **** 0.06
27519 H 195.11397338243074 19.815421194826826 87.77273328239238 H 0.0 **** 0.06
27520 H 195.21131861233948 18.632056371252673 86.4459184985015 H 0.0 **** 0.06
27521 C 89.24976651511847 31.139327425958 55.52963587605973 C 0.0 **** -0.24
27522 H 89.21383632941595 32.22779216939824 55.57408913598013 H 0.0 **** 0.06
27523 H 89.39239409159825 30.822099881463473 54.49681564750475 H 0.0 **** 0.06
27524 H 88.31329239747646 30.729450603718192 55.91025879143703 H 0.0 **** 0.06
27525 H 90.07803031617047 30.77899365753305 56.138667244201 H 0.0 **** 0.06
27526 C 51.28410812943335 162.73194659055193 154.31586176398017 C 0.0 **** -0.24
27527 H 50.235001662650575 162.79200110127655 154.02503251327855 H 0.0 **** 0.06
27528 H 51.82750588543206 163.57521652839446 153.8900927473817 H 0.0 **** 0.06
27529 H 51.711108092541195 161.8001618247568 153.94580805863166 H 0.0 **** 0.06
27530 H 51.36057032273803 162.7613580002231 155.40229356613685 H 0.0 **** 0.06
27531 C 180.21187685852766 245.05567444026883 14.453567114472847 C 0.0 **** -0.24
27532 H 180.63063895056905 246.02042058726258 14.169439082154838 H 0.0 **** 0.06
27533 H 180.06813508360278 244.4453494810251 13.56215065052696 H 0.0 **** 0.06
27534 H 179.2538670340884 245.2072637350991 14.949684458718892 H 0.0 **** 0.06
27535 H 180.89693927079492 244.54885398747473 15.133211204342274 H 0.0 **** 0.06
27536 C 187.2549850628199 7.958614207629722 214.35546964327838 C 0.0 **** -0.24
27537 H 187.47112738398673 6.890206619793986 214.33918173485415 H 0.0 **** 0.06
27538 H 188.1638149513147 8.515852093598113 214.12783233693187 H 0.0 **** 0.06
27539 H 186.89354707898673 8.240386680358 215.34393027305845 H 0.0 **** 0.06
27540 H 186.49226164780492 8.185737978517096 213.61051705704807 H 0.0 **** 0.06
27541 C 215.40174263309297 18.748984597663153 221.03326346639773 C 0.0 **** -0.24
27542 H 214.87781327890485 18.85134089870448 221.98401201164566 H 0.0 **** 0.06
27543 H 214.7825692714627 18.185284501455172 220.33614359925383 H 0.0 **** 0.06
27544 H 216.34265406950897 18.221940742356395 221.1929350579597 H 0.0 **** 0.06
27545 H 215.60340262975922 19.738081507448882 220.622998783538 H 0.0 **** 0.06
27546 C 162.06413291978856 108.9034760881487 162.0390552368651 C 0.0 **** -0.24
27547 H 161.9604207616057 109.04186238873251 160.96328779910215 H 0.0 **** 0.06
27548 H 161.28414698054067 109.46488306175047 162.55454017853774 H 0.0 **** 0.06
27549 H 163.042687606012 109.26316323119707 162.35836458849698 H 0.0 **** 0.06
27550 H 161.9702575842954 107.84538632360687 162.28034971645113 H 0.0 **** 0.06
27551 C 171.4303223265598 37.51120215264555 53.19332893257911 C 0.0 **** -0.24
27552 H 170.76469526792715 37.17062858040363 52.400291841171764 H 0.0 **** 0.06
27553 H 171.18871219743454 38.542447753925885 53.451465772354226 H 0.0 **** 0.06
27554 H 172.46294331019786 37.454447743431274 52.849505712416004 H 0.0 **** 0.06
27555 H 171.30272511599864 36.87710115242534 54.07101933830418 H 0.0 **** 0.06
27556 C 92.62400602728388 15.154301016506821 218.20334748580615 C 0.0 **** -0.24
27557 H 92.36545793014909 14.355543370519484 217.50794783323246 H 0.0 **** 0.06
27558 H 93.07432522007633 14.724286729821614 219.09794510817548 H 0.0 **** 0.06
27559 H 91.7217345364177 15.701910304430982 218.4771645813497 H 0.0 **** 0.06
27560 H 93.3311917990994 15.833614298940745 217.72872204897854 H 0.0 **** 0.06
27561 C 111.21239417757434 88.23618099426804 121.86787328180861 C 0.0 **** -0.24
27562 H 110.21626495095245 88.05748796865257 121.460610523072 H 0.0 **** 0.06
27563 H 111.42479043916893 89.30460105090728 121.84976337914222 H 0.0 **** 0.06
27564 H 111.95118707480415 87.70737044994902 121.26516021718197 H 0.0 **** 0.06
27565 H 111.2537091571281 87.87364692816467 122.89484440582319 H 0.0 **** 0.06
27566 C 37.84477939564468 123.7270474371073 98.86017760209924 C 0.0 **** -0.24
27567 H 37.300523619885794 123.00382165694643 99.46870673441808 H 0.0 **** 0.06
27568 H 38.50813570308581 124.31136840095442 99.49909465859011 H 0.0 **** 0.06
27569 H 37.13605871832718 124.39197667789756 98.36615161190221 H 0.0 **** 0.06
27570 H 38.433767145175665 123.19971602381864 98.10973934287674 H 0.0 **** 0.06
27571 C 186.90846060122877 245.50463988868393 41.722288831265516 C 0.0 **** -0.24
27572 H 186.68546492410889 245.23996262631047 40.68926829311809 H 0.0 **** 0.06
27573 H 187.9878081596907 245.48383117380365 41.877564162290895 H 0.0 **** 0.06
27574 H 186.43094338482337 244.78890056162138 42.3916647311798 H 0.0 **** 0.06
27575 H 186.529846653938 246.50490808151042 41.93047043910002 H 0.0 **** 0.06
27576 C 140.44024497185177 213.66613301641348 139.75436226388604 C 0.0 **** -0.24
27577 H 140.58381895394479 212.85106564067314 139.04500039987522 H 0.0 **** 0.06
27578 H 141.2944702556913 214.34228119086066 139.70735812283132 H 0.0 **** 0.06
27579 H 140.3533352584792 213.25946632208507 140.7618574099199 H 0.0 **** 0.06
27580 H 139.53110311908682 214.21080037608306 139.50178333136125 H 0.0 **** 0.06
27581 C 212.13281631893102 209.854383825366 243.64541045893353 C 0.0 **** -0.24
27582 H 212.50110431819365 210.69800273546522 243.0626681130918 H 0.0 **** 0.06
27583 H 211.79454116494315 209.06761107604584 242.97158917396246 H 0.0 **** 0.06
27584 H 211.30181861016743 210.1803530864785 244.27033878326466 H 0.0 **** 0.06
27585 H 212.93500314727805 209.4723045894228 244.27693030891317 H 0.0 **** 0.06
27586 C 164.89087842986734 16.760266549288218 114.93718527622295 C 0.0 **** -0.24
27587 H 164.0114643805993 17.315389864265796 114.61253994249569 H 0.0 **** 0.06
27588 H 165.4906193000315 17.38481116177556 115.60024296395713 H 0.0 **** 0.06
27589 H 165.48510082980167 16.478853318847115 114.06736925561262 H 0.0 **** 0.06
27590 H 164.5773035175299 15.861822449346135 115.4695963498794 H 0.0 **** 0.06
27591 C 194.16369862336327 155.99770335708027 117.12636690701672 C 0.0 **** -0.24
27592 H 193.63350304570008 155.06870971466446 117.33246401112567 H 0.0 **** 0.06
27593 H 193.4703776458138 156.83572665281676 117.19956901911331 H 0.0 **** 0.06
27594 H 194.58469087738018 155.959696544611 116.12188068554798 H 0.0 **** 0.06
27595 H 194.96735022093145 156.12609140685942 117.85217211331067 H 0.0 **** 0.06
27596 C 140.4887808746833 244.0726089494616 145.9062100135591 C 0.0 **** -0.24
27597 H 139.85175526406616 244.9010583857991 145.59364243892858 H 0.0 **** 0.06
27598 H 139.89609765735577 243.35232878290145 146.47067848960063 H 0.0 **** 0.06
27599 H 141.2941020057001 244.4522175491378 146.53521061597135 H 0.0 **** 0.06
27600 H 140.91115949721922 243.58815441988594 145.02669386084025 H 0.0 **** 0.06
27601 C 83.68115790694151 158.25703211671527 109.89472422588025 C 0.0 **** -0.24
27602 H 83.53025384626343 157.5048478505489 110.66922494647193 H 0.0 **** 0.06
27603 H 83.72067334721712 159.24570840577658 110.35315885067666 H 0.0 **** 0.06
27604 H 82.85355891206939 158.21764915806594 109.18516628375343 H 0.0 **** 0.06
27605 H 84.61691367049193 158.05937542321118 109.37315108783045 H 0.0 **** 0.06
27606 C 145.24729685571745 32.24866894587325 137.23435932258374 C 0.0 **** -0.24
27607 H 145.70043864524703 33.080934150014 137.77377541993698 H 0.0 **** 0.06
27608 H 144.26480854774965 32.03481801302047 137.65674076763287 H 0.0 **** 0.06
27609 H 145.882921749623 31.367983291817097 137.32497576402983 H 0.0 **** 0.06
27610 H 145.1411970431427 32.51399958938276 136.18272581063468 H 0.0 **** 0.06
27611 C 102.71694691624916 10.773716187491402 217.9632699043029 C 0.0 **** -0.24
27612 H 101.89996172899308 10.07370468520213 217.7850658623376 H 0.0 **** 0.06
27613 H 103.51832661247596 10.58449710877268 217.24888114856188 H 0.0 **** 0.06
27614 H 103.09391792372736 10.641076593906035 218.97704806563823 H 0.0 **** 0.06
27615 H 102.35401261159748 11.794192393953523 217.8413126565431 H 0.0 **** 0.06
27616 C 223.99173027353282 158.6421670365858 50.78948413283027 C 0.0 **** -0.24
27617 H 225.02787066760467 158.5219971719632 50.47135072134185 H 0.0 **** 0.06
27618 H 223.9076969599455 158.4071052065709 51.850680114136054 H 0.0 **** 0.06
27619 H 223.3568880895632 157.96755347382404 50.215238967999625 H 0.0 **** 0.06
27620 H 223.67690563645957 159.67147065711023 50.618486849299785 H 0.0 **** 0.06
27621 C 162.00502880196194 212.9635766385873 100.00627406853962 C 0.0 **** -0.24
27622 H 162.98464184569266 213.41191615709533 99.8393383509985 H 0.0 **** 0.06
27623 H 161.2837966016679 213.39801922370506 99.31342752649348 H 0.0 **** 0.06
27624 H 161.68725784651915 213.15582744540993 101.0303384229766 H 0.0 **** 0.06
27625 H 162.0652802090964 211.88729652373914 99.84034798446405 H 0.0 **** 0.06
27626 C 209.8635510444594 57.84449871426321 58.57784179076785 C 0.0 **** -0.24
27627 H 210.66389728979584 58.09636052344766 59.272210616795945 H 0.0 **** 0.06
27628 H 209.42189221816872 58.76015205543783 58.18410582214017 H 0.0 **** 0.06
27629 H 209.09929991147604 57.26750078006634 59.09771307352665 H 0.0 **** 0.06
27630 H 210.26843727439788 57.25343906358731 57.75553575738792 H 0.0 **** 0.06
27631 C 2.470624685489156 196.1750813657419 126.2342385897295 C 0.0 **** -0.24
27632 H 2.703520224655975 197.21266355729506 125.99390457780751 H 0.0 **** 0.06
27633 H 3.1693800595174224 195.8119349824724 126.98881609698483 H 0.0 **** 0.06
27634 H 2.557823807919007 195.5653664820381 125.33402824843017 H 0.0 **** 0.06
27635 H 1.4528375280463877 196.11116370491652 126.61973101311415 H 0.0 **** 0.06
27636 C 208.40343682057835 38.99017233203497 166.64969628672378 C 0.0 **** -0.24
27637 H 208.08512627777867 39.414060252738665 165.69783811047188 H 0.0 **** 0.06
27638 H 209.39889463531208 39.359267840540525 166.89818737641684 H 0.0 **** 0.06
27639 H 208.42698504083836 37.903206778056614 166.5736572691581 H 0.0 **** 0.06
27640 H 207.70158127836027 39.28385144100466 167.4303523886801 H 0.0 **** 0.06
27641 C 37.29783098323266 63.66368956130171 188.94935614866816 C 0.0 **** -0.24
27642 H 36.48514736940621 63.272162681339125 188.33697912307258 H 0.0 **** 0.06
27643 H 38.23656221508378 63.19987647103946 188.64509693584216 H 0.0 **** 0.06
27644 H 37.103055221858185 63.43709865754633 189.9979607173559 H 0.0 **** 0.06
27645 H 37.36487445130976 64.7438440868703 188.8173071092262 H 0.0 **** 0.06
27646 C 202.6153098449782 105.63732737731064 211.87385491634254 C 0.0 **** -0.24
27647 H 201.56641799028574 105.40517583752816 211.68601423661107 H 0.0 **** 0.06
27648 H 203.1365884049973 105.7565032898211 210.9239815907451 H 0.0 **** 0.06
27649 H 203.07138042365767 104.82358924414697 212.43854461531424 H 0.0 **** 0.06
27650 H 202.68583739683115 106.56181376635126 212.4467880258805 H 0.0 **** 0.06
27651 C 212.57522494487995 12.617438663876214 139.11153160648743 C 0.0 **** -0.24
27652 H 212.57877200464458 11.564856187695355 139.3925584855014 H 0.0 **** 0.06
27653 H 213.38113168016045 13.134950611060958 139.6311884935315 H 0.0 **** 0.06
27654 H 211.61950268090254 13.064112929291426 139.38771747598267 H 0.0 **** 0.06
27655 H 212.71873873131312 12.706996023953508 138.03491429392773 H 0.0 **** 0.06
27656 C 13.028654493311734 241.65291871640574 148.7203150691168 C 0.0 **** -0.24
27657 H 13.154408736542138 242.7238519905355 148.56158145630675 H 0.0 **** 0.06
27658 H 13.899627250720101 241.12393409787592 148.33298148987907 H 0.0 **** 0.06
27659 H 12.134249137687647 241.31113845165817 148.19956668643772 H 0.0 **** 0.06
27660 H 12.926681493118593 241.45368485529292 149.78705915474322 H 0.0 **** 0.06
27661 C 224.83897242250433 112.28113056371333 235.13362209899663 C 0.0 **** -0.24
27662 H 225.12476105610386 111.7129711521223 234.24894741330434 H 0.0 **** 0.06
27663 H 223.755341638769 112.24889783922924 235.2508695049831 H 0.0 **** 0.06
27664 H 225.1620922633441 113.31651854164238 235.02157799474895 H 0.0 **** 0.06
27665 H 225.3124806725658 111.84551046751315 236.01346278792047 H 0.0 **** 0.06
27666 C 241.0029959202741 97.53616734459396 101.79684925132494 C 0.0 **** -0.24
27667 H 241.95761576400955 97.69217226433267 101.29399838690884 H 0.0 **** 0.06
27668 H 240.37798038784223 98.42041157642186 101.67100691210055 H 0.0 **** 0.06
27669 H 241.17667707303713 97.36156857081221 102.85931746634043 H 0.0 **** 0.06
27670 H 240.50138808799804 96.6716053066242 101.36304096875836 H 0.0 **** 0.06
27671 C 174.31586783866595 230.91111208185126 43.986967691071996 C 0.0 **** -0.24
27672 H 174.06820013341846 231.96287388245503 44.12526583877512 H 0.0 **** 0.06
27673 H 175.36205112988307 230.8203632967365 43.69401419194165 H 0.0 **** 0.06
27674 H 173.6818656185355 230.48711618672633 43.208200565493144 H 0.0 **** 0.06
27675 H 174.15274484441525 230.37320303788638 44.9218972804905 H 0.0 **** 0.06
27676 C 23.52811485547886 180.4153907594136 202.3151169020955 C 0.0 **** -0.24
27677 H 23.031339696502144 180.5596393194628 203.27477953433387 H 0.0 **** 0.06
27678 H 22.779121407057062 180.26062931795605 201.53847201562652 H 0.0 **** 0.06
27679 H 24.179861565946624 179.5443213525754 202.37102637255342 H 0.0 **** 0.06
27680 H 24.121264628918908 181.29872502323724 202.07727136552572 H 0.0 **** 0.06
27681 C 41.44987364769841 106.2377357183318 246.54243560134432 C 0.0 **** -0.24
27682 H 41.20654225798063 107.08718033184255 245.90472779526542 H 0.0 **** 0.06
27683 H 41.58943667892693 105.34898723173362 245.9275414230097 H 0.0 **** 0.06
27684 H 40.635618782273895 106.0683257105556 247.24737945573708 H 0.0 **** 0.06
27685 H 42.36798830866664 106.44796490385647 247.09201611256412 H 0.0 **** 0.06
27686 C 83.8404407655674 170.74653389186855 234.58560583679056 C 0.0 **** -0.24
27687 H 83.02187655561127 171.4104483420229 234.30896202447306 H 0.0 **** 0.06
27688 H 84.76732824879298 171.31911117938202 234.64705042975743 H 0.0 **** 0.06
27689 H 83.94549033330381 169.96566586628117 233.83166333575736 H 0.0 **** 0.06
27690 H 83.62912848262937 170.2926080747602 235.55337958760208 H 0.0 **** 0.06
27691 C 194.11954574512615 82.92712431746375 63.91302556912328 C 0.0 **** -0.24
27692 H 193.04455965988808 82.80756839154412 64.04185821421058 H 0.0 **** 0.06
27693 H 194.3797108810255 82.7676629495297 62.865988914615656 H 0.0 **** 0.06
27694 H 194.6424920681193 82.19824044443877 64.53180340273545 H 0.0 **** 0.06
27695 H 194.41187300170725 83.93385470404326 64.21060121850687 H 0.0 **** 0.06
27696 C 99.93796536546091 20.625078882297174 62.26776663011361 C 0.0 **** -0.24
27697 H 100.21740948721569 21.324063016480153 63.056412772038016 H 0.0 **** 0.06
27698 H 99.18890685231054 19.930704394105618 62.6482781048517 H 0.0 **** 0.06
27699 H 100.81962784926012 20.069264818668074 61.947431543236235 H 0.0 **** 0.06
27700 H 99.52730422350194 21.176302659108643 61.42195675709647 H 0.0 **** 0.06
27701 C 131.36719907078003 162.31182465193442 139.170296225772 C 0.0 **** -0.24
27702 H 132.3011285811541 162.76795410060546 138.84203540860142 H 0.0 **** 0.06
27703 H 130.6865270633321 162.22861283096233 138.32324665427785 H 0.0 **** 0.06
27704 H 130.9120986045525 162.9314725680128 139.94319311292583 H 0.0 **** 0.06
27705 H 131.56955317727454 161.31859552016545 139.57216347335765 H 0.0 **** 0.06
27706 C 60.935843300532525 133.994798824828 90.4032426962965 C 0.0 **** -0.24
27707 H 60.09558238193597 133.76427591048653 91.05769692519826 H 0.0 **** 0.06
27708 H 60.59003816948734 134.60471062917316 89.56781108023512 H 0.0 **** 0.06
27709 H 61.36423911403648 133.06748734483367 90.02219674081434 H 0.0 **** 0.06
27710 H 61.69342378976876 134.54125280037314 90.96358224388203 H 0.0 **** 0.06
27711 C 126.21492443996982 121.45480954091994 207.8105045587753 C 0.0 **** -0.24
27712 H 126.99837877302897 121.1849130020849 208.51804729755514 H 0.0 **** 0.06
27713 H 125.33293770776473 120.84182928014468 207.99460824609707 H 0.0 **** 0.06
27714 H 126.56974985341523 121.28610429203201 206.7935040477724 H 0.0 **** 0.06
27715 H 125.9595760076538 122.50671764979202 207.9358204435877 H 0.0 **** 0.06
27716 C 136.20891089706285 243.92654984391248 243.2597897425532 C 0.0 **** -0.24
27717 H 135.63164997680965 243.35789533584347 243.9887962232713 H 0.0 **** 0.06
27718 H 135.9686132993599 244.9855644115458 243.3530730621259 H 0.0 **** 0.06
27719 H 135.96317596853248 243.58407450586998 242.25499048452298 H 0.0 **** 0.06
27720 H 137.27338881780906 243.77830019174195 243.44441199578085 H 0.0 **** 0.06
27721 C 237.0502908835515 164.7510896574413 189.76802617498066 C 0.0 **** -0.24
27722 H 238.06138816630613 165.09144343704756 189.54542079597985 H 0.0 **** 0.06
27723 H 236.62299822215712 165.37197576826105 190.5555558504255 H 0.0 **** 0.06
27724 H 237.08064998213854 163.71333314317013 190.09827653427368 H 0.0 **** 0.06
27725 H 236.43565834458218 164.82903368498688 188.86989469078839 H 0.0 **** 0.06
27726 C 140.45702569185437 216.4588234596352 48.55528888524064 C 0.0 **** -0.24
27727 H 140.04392640562264 215.654081658012 49.163700904052064 H 0.0 **** 0.06
27728 H 139.68393444871066 217.20578064495984 48.369451639074256 H 0.0 **** 0.06
27729 H 140.80805483836528 216.05372991926214 47.606629661462975 H 0.0 **** 0.06
27730 H 141.29025117683304 216.9216829451468 49.08387374596748 H 0.0 **** 0.06
27731 C 214.25314086380152 99.52486059937763 226.55375426199004 C 0.0 **** -0.24
27732 H 213.46599651528442 98.78259024564315 226.4226395709364 H 0.0 **** 0.06
27733 H 215.1418867529749 99.0429822611284 226.9631557716012 H 0.0 **** 0.06
27734 H 213.91121935742336 100.29942181435075 227.23928848012054 H 0.0 **** 0.06
27735 H 214.4938902342521 99.97356257594001 225.59011073663274 H 0.0 **** 0.06
27736 C 88.38164845531193 201.35458525094845 156.8823932020216 C 0.0 **** -0.24
27737 H 88.03550529253152 201.17105639655438 157.89978380753303 H 0.0 **** 0.06
27738 H 87.67926263859945 202.01483090100658 156.3724516103888 H 0.0 **** 0.06
27739 H 88.4485446318256 200.40897140339325 156.34466007196724 H 0.0 **** 0.06
27740 H 89.36525989286596 201.82475332889504 156.91336256005997 H 0.0 **** 0.06
27741 C 216.8662893417216 204.49914187707918 24.005310668179703 C 0.0 **** -0.24
27742 H 217.753059175636 204.01905053950014 23.591276684128104 H 0.0 **** 0.06
27743 H 217.100239746542 204.90867211812258 24.98805873363807 H 0.0 **** 0.06
27744 H 216.066167221868 203.76415908000916 24.099062793070715 H 0.0 **** 0.06
27745 H 216.5454262013135 205.30226025079446 23.34306050649971 H 0.0 **** 0.06
27746 C 183.59861706306546 79.98152963939395 225.17262878857224 C 0.0 **** -0.24
27747 H 183.1213613284581 79.80719378291383 226.1369915535928 H 0.0 **** 0.06
27748 H 183.11773490349512 80.8257546337731 224.67811682668406 H 0.0 **** 0.06
27749 H 183.49761248291423 79.09126051610212 224.5521841670687 H 0.0 **** 0.06
27750 H 184.65419009756192 80.20193486812835 225.324344479655 H 0.0 **** 0.06
27751 C 2.95234585790044 13.436552269800671 217.82000745373813 C 0.0 **** -0.24
27752 H 2.666054104076636 12.473032757102288 218.241623095405 H 0.0 **** 0.06
27753 H 3.7521205401786943 13.29072829822536 217.09276168208228 H 0.0 **** 0.06
27754 H 3.3013303721371017 14.092026436430444 218.6176621351235 H 0.0 **** 0.06
27755 H 2.0913635410151983 13.888755121007009 217.32811458241196 H 0.0 **** 0.06
27756 C 140.4408929181271 132.0921095569447 27.897818671828716 C 0.0 **** -0.24
27757 H 140.39595851410508 133.12181923299806 27.542224158490555 H 0.0 **** 0.06
27758 H 141.10353326538817 132.03478604188464 28.760933581029917 H 0.0 **** 0.06
27759 H 140.82061843330888 131.4511288527203 27.10301188652383 H 0.0 **** 0.06
27760 H 139.441064633673 131.76335283382735 28.183991700891312 H 0.0 **** 0.06
27761 C 223.23084448846694 21.278815057856434 191.96800129363896 C 0.0 **** -0.24
27762 H 223.66582288511736 21.995880698953684 192.6634063690476 H 0.0 **** 0.06
27763 H 223.90066198901883 21.14444157131244 191.11818669100268 H 0.0 **** 0.06
27764 H 222.2683724148574 21.650968361143384 191.61650307409926 H 0.0 **** 0.06
27765 H 223.08849545131358 20.323450828807324 192.47225668756192 H 0.0 **** 0.06
27766 C 184.16460161284584 247.05240442692866 94.35511554898616 C 0.0 **** -0.24
27767 H 183.39436483489484 247.82395659931757 94.3321562417286 H 0.0 **** 0.06
27768 H 184.88000533785112 247.23045769804077 93.55221573428614 H 0.0 **** 0.06
27769 H 183.70180861399726 246.07382524437432 94.22088437007048 H 0.0 **** 0.06
27770 H 184.67990724935942 247.08184378655983 95.31457424173098 H 0.0 **** 0.06
27771 C 82.81841813010672 171.52999848016992 163.45675541676437 C 0.0 **** -0.24
27772 H 83.23684996042866 171.27838527631758 164.43036681288382 H 0.0 **** 0.06
27773 H 82.66922030379834 170.61770936625823 162.87829698223956 H 0.0 **** 0.06
27774 H 83.5048300262217 172.18987380696126 162.9252783802098 H 0.0 **** 0.06
27775 H 81.8608075242937 172.03468579617328 163.5911549189593 H 0.0 **** 0.06
27776 C 192.6199290467208 123.87464187585098 159.86444370136925 C 0.0 **** -0.24
27777 H 192.7725438794725 123.77731649184102 158.7894194901086 H 0.0 **** 0.06
27778 H 191.8028117185257 123.2234901313401 160.17623410264918 H 0.0 **** 0.06
27779 H 192.37251072485887 124.90942486120684 160.10405365307682 H 0.0 **** 0.06
27780 H 193.53281624762897 123.58913201741933 160.3874099056688 H 0.0 **** 0.06
27781 C 26.849691813489358 152.53991621522945 180.24772886572924 C 0.0 **** -0.24
27782 H 26.799343852818396 152.25387710446125 179.19742211380878 H 0.0 **** 0.06
27783 H 27.85332248378225 152.3497308782706 180.62749271347099 H 0.0 **** 0.06
27784 H 26.12825455099272 151.95600590447077 180.81793459989905 H 0.0 **** 0.06
27785 H 26.617673996011803 153.60013094203433 180.3463444310383 H 0.0 **** 0.06
27786 C 244.6029623498737 47.087425228263655 16.193359673024446 C 0.0 **** -0.24
27787 H 245.32456453066249 46.29358441341721 15.999657258359221 H 0.0 **** 0.06
27788 H 244.08362835520856 47.33902161876496 15.267799819430678 H 0.0 **** 0.06
27789 H 245.12361626010875 47.968213269094505 16.56903573154706 H 0.0 **** 0.06
27790 H 243.88021478660193 46.74886493845945 16.935542572503977 H 0.0 **** 0.06
27791 C 67.40279854956691 189.43408567166185 140.40244761486787 C 0.0 **** -0.24
27792 H 66.50525089794306 188.97397368220297 139.98879710757203 H 0.0 **** 0.06
27793 H 67.14043787879896 190.37778006641534 140.88006810339795 H 0.0 **** 0.06
27794 H 68.11955973183805 189.61799166447426 139.60253852263966 H 0.0 **** 0.06
27795 H 67.84614245651454 188.76396157737722 141.13980604827495 H 0.0 **** 0.06
27796 C 134.12699236492247 197.9321043751463 144.63114938905278 C 0.0 **** -0.24
27797 H 133.42418034834574 198.7543171865373 144.7699115676424 H 0.0 **** 0.06
27798 H 134.4800105741356 197.92709184562648 143.59972969214067 H 0.0 **** 0.06
27799 H 133.63004069081725 196.98789798078013 144.85038869301712 H 0.0 **** 0.06
27800 H 134.97496350943467 198.06248176783464 145.30420380875753 H 0.0 **** 0.06
27801 C 127.5746231388868 172.4052369968549 208.02679272364048 C 0.0 **** -0.24
27802 H 127.38973590417342 172.53970670463585 206.96103141017483 H 0.0 **** 0.06
27803 H 127.10507397801942 173.2164354616568 208.58216484585733 H 0.0 **** 0.06
27804 H 128.64863879218956 172.41114955207073 208.2123728574257 H 0.0 **** 0.06
27805 H 127.15648490353135 171.45229846662906 208.3501596002788 H 0.0 **** 0.06
27806 C 65.4689589683959 156.13162653823204 63.63097689828524 C 0.0 **** -0.24
27807 H 65.26193560753427 156.4745047082356 64.64356192422775 H 0.0 **** 0.06
27808 H 64.73611193426245 155.37759413197128 63.344786544860966 H 0.0 **** 0.06
27809 H 66.46934565352038 155.6993163039562 63.5917350665228 H 0.0 **** 0.06
27810 H 65.4111388892114 156.97525626292202 62.94251898081089 H 0.0 **** 0.06
27811 C 66.57554965277788 155.86989412165752 11.33512863212232 C 0.0 **** -0.24
27812 H 67.0232686311127 155.05946068298098 10.7600921765779 H 0.0 **** 0.06
27813 H 66.44994136313844 156.74231159069092 10.693357728488735 H 0.0 **** 0.06
27814 H 67.22582988342074 156.1245569133597 12.171370249507135 H 0.0 **** 0.06
27815 H 65.6032600693645 155.55361945013712 11.71240023637742 H 0.0 **** 0.06
27816 C 190.706430048659 195.43190493896475 70.06221600677108 C 0.0 **** -0.24
27817 H 191.0450105123916 194.39531126909094 70.05138024743505 H 0.0 **** 0.06
27818 H 190.51546879453986 195.76274844443773 69.04169019304064 H 0.0 **** 0.06
27819 H 191.4765185563661 196.05992102926473 70.5100173559774 H 0.0 **** 0.06
27820 H 189.78981925201225 195.50877124694853 70.64752087835782 H 0.0 **** 0.06
27821 C 40.71604055835499 73.52854664139343 134.16149177460767 C 0.0 **** -0.24
27822 H 41.05504150971669 74.56428115189868 134.18220282768445 H 0.0 **** 0.06
27823 H 41.49752554730716 72.88200266830779 134.56170756618843 H 0.0 **** 0.06
27824 H 40.49639900751802 73.24020264712937 133.13323309849818 H 0.0 **** 0.06
27825 H 39.81559067972992 73.4287002372385 134.76686296028475 H 0.0 **** 0.06
27826 C 112.18796022795775 242.92484256443933 41.48201005329342 C 0.0 **** -0.24
27827 H 112.18149011721084 242.02823186258274 40.86186171598776 H 0.0 **** 0.06
27828 H 111.70079147459856 243.73999537995712 40.94630297956063 H 0.0 **** 0.06
27829 H 113.21618234997578 243.20149225376724 41.70910421749471 H 0.0 **** 0.06
27830 H 111.65040982341853 242.72807967996278 42.40945681527306 H 0.0 **** 0.06
27831 C 209.90229007266865 179.50460814562285 98.53837353944621 C 0.0 **** -0.24
27832 H 209.50984803197088 179.42378463632113 97.5240893653104 H 0.0 **** 0.06
27833 H 209.08713634372793 179.73707784840968 99.22407231468003 H 0.0 **** 0.06
27834 H 210.6473717520749 180.29886519035284 98.5773171033542 H 0.0 **** 0.06
27835 H 210.36156324436791 178.55894606641823 98.82547796337144 H 0.0 **** 0.06
27836 C 93.06646440279903 171.26603285975634 235.31498554747486 C 0.0 **** -0.24
27837 H 93.50337194581661 170.58534278728837 236.0449316981519 H 0.0 **** 0.06
27838 H 92.32886334493477 171.89994796496458 235.80674146683782 H 0.0 **** 0.06
27839 H 92.58294925458861 170.69095467354418 234.52513761732013 H 0.0 **** 0.06
27840 H 93.85093572739842 171.88743968068954 234.8839868641441 H 0.0 **** 0.06
27841 C 100.48528797503965 155.9583152556788 184.23359882072293 C 0.0 **** -0.24
27842 H 99.92838694212631 155.87544719482358 185.16735612373705 H 0.0 **** 0.06
27843 H 101.10748927673396 156.85373207864112 184.2607987730115 H 0.0 **** 0.06
27844 H 99.78754442839167 156.02564936272296 183.3989278497795 H 0.0 **** 0.06
27845 H 101.11758859023817 155.0795311705962 184.10819136536202 H 0.0 **** 0.06
27846 C 10.45005291337786 51.847181530932986 99.5138835811091 C 0.0 **** -0.24
27847 H 10.205020009852461 52.1686395439569 98.50199812159315 H 0.0 **** 0.06
27848 H 9.62531103824736 52.09464702282469 100.1822571588012 H 0.0 **** 0.06
27849 H 11.354404149333732 52.355456180445344 99.84781664008347 H 0.0 **** 0.06
27850 H 10.614173474817832 50.76910560297863 99.52273316964462 H 0.0 **** 0.06
27851 C 112.5239067500514 3.102630918211986 75.5892650191025 C 0.0 **** -0.24
27852 H 112.34550144851536 2.3122289862669163 74.8606877092291 H 0.0 **** 0.06
27853 H 111.74319777271236 3.858445558541689 75.50421038850038 H 0.0 **** 0.06
27854 H 113.49505290066136 3.5593116511959977 75.40034327807848 H 0.0 **** 0.06
27855 H 112.51151111792606 2.6790997432663346 76.59349221463776 H 0.0 **** 0.06
27856 C 126.74981302344304 9.82254211566405 33.60231353204881 C 0.0 **** -0.24
27857 H 127.61666408515103 10.25203999123923 34.1039402609583 H 0.0 **** 0.06
27858 H 126.31395543854049 10.564066319424143 32.933016447850235 H 0.0 **** 0.06
27859 H 126.01028923154297 9.524674556291956 34.34654942275975 H 0.0 **** 0.06
27860 H 127.05830336926834 8.94989225165429 33.02740442472347 H 0.0 **** 0.06
27861 C 231.8588302544254 39.71088067107004 235.5772027400078 C 0.0 **** -0.24
27862 H 231.62260197542446 39.304155076428884 234.59341360134874 H 0.0 **** 0.06
27863 H 231.5293775291683 40.74913582732373 235.63009615311364 H 0.0 **** 0.06
27864 H 232.93477323042322 39.66152719250013 235.7419677459257 H 0.0 **** 0.06
27865 H 231.34687751696305 39.12747767267237 236.34253593931788 H 0.0 **** 0.06
27866 C 132.1854276861335 225.62348241165802 126.68692794757865 C 0.0 **** -0.24
27867 H 131.70665135987383 225.7646807670758 125.71770721561089 H 0.0 **** 0.06
27868 H 132.82750925070803 226.47733995961198 126.90322201014942 H 0.0 **** 0.06
27869 H 132.78511580557716 224.7126864547118 126.66719301666106 H 0.0 **** 0.06
27870 H 131.42181794488116 225.53864687590536 127.46012692862652 H 0.0 **** 0.06
27871 C 133.26088953991012 53.334746723643036 144.92754897098106 C 0.0 **** -0.24
27872 H 133.85152971540734 54.24999815492646 144.9034541557012 H 0.0 **** 0.06
27873 H 133.20718698486755 52.9105909649648 143.9243373741827 H 0.0 **** 0.06
27874 H 132.25487794601534 53.561384514098165 145.28059366159457 H 0.0 **** 0.06
27875 H 133.72877580784422 52.61764363100707 145.6013725050039 H 0.0 **** 0.06
27876 C 241.45265076887316 169.1065062380313 33.38755611261708 C 0.0 **** -0.24
27877 H 240.92905668699467 169.80819051267153 32.73882274825907 H 0.0 **** 0.06
27878 H 240.85852339067495 168.92999325759158 34.28453794146479 H 0.0 **** 0.06
27879 H 242.41954962922858 169.5241913782044 33.668672261713084 H 0.0 **** 0.06
27880 H 241.60273765626496 168.16563804461626 32.85890260658054 H 0.0 **** 0.06
27881 C 103.28233763186827 55.04487622323305 51.68379131001598 C 0.0 **** -0.24
27882 H 102.42642994116116 55.5609726480848 52.11984071517878 H 0.0 **** 0.06
27883 H 103.77074165232634 54.442061405609905 52.449730852167235 H 0.0 **** 0.06
27884 H 103.98827402977099 55.77828748815071 51.29345390145659 H 0.0 **** 0.06
27885 H 102.94326338544698 54.39909905304725 50.874319221195236 H 0.0 **** 0.06
27886 C 72.01156747068924 43.0402168637936 50.053171560879065 C 0.0 **** -0.24
27887 H 71.251652075995 42.30259773046437 50.311063351573836 H 0.0 **** 0.06
27888 H 72.547577812534 42.71335838984912 49.16133467317562 H 0.0 **** 0.06
27889 H 72.71242768138777 43.14455729075594 50.881752042560976 H 0.0 **** 0.06
27890 H 71.53376912250297 44.00051415952079 49.85904940407582 H 0.0 **** 0.06
27891 C 59.57171001146358 75.44933109758594 221.39743941230887 C 0.0 **** -0.24
27892 H 59.34175208622108 75.93380303032265 222.34580530016217 H 0.0 **** 0.06
27893 H 60.31664536497644 74.67003469514998 221.55874969329315 H 0.0 **** 0.06
27894 H 59.9640666306386 76.18841411480574 220.6985537627049 H 0.0 **** 0.06
27895 H 58.66445012850622 75.00647553642293 220.98681059769507 H 0.0 **** 0.06
27896 C 240.8982030877483 233.96036823661277 169.05034649989423 C 0.0 **** -0.24
27897 H 241.53589039449253 233.1394431838136 169.38010176859035 H 0.0 **** 0.06
27898 H 240.9742574958126 234.7857005931055 169.7594457974003 H 0.0 **** 0.06
27899 H 239.86414700013484 233.61853681971564 168.99985031512588 H 0.0 **** 0.06
27900 H 241.2192563019094 234.29592203252912 168.06514345727274 H 0.0 **** 0.06
27901 C 19.09807084204941 110.02257216384689 243.40262260852467 C 0.0 **** -0.24
27902 H 18.081026833980914 110.11225665041209 243.78354745932435 H 0.0 **** 0.06
27903 H 19.110240404276894 109.33270708637542 242.5582810578561 H 0.0 **** 0.06
27904 H 19.748532663209474 109.64459212906647 244.1907869774975 H 0.0 **** 0.06
27905 H 19.451632731285798 111.00181893679286 243.07818566890018 H 0.0 **** 0.06
27906 C 205.4867193347758 19.960228988011096 215.19809437804872 C 0.0 **** -0.24
27907 H 204.9868070114074 20.069443341914337 216.15997870205172 H 0.0 **** 0.06
27908 H 205.13227283624948 19.05502933226984 214.70466369823694 H 0.0 **** 0.06
27909 H 206.56353469303218 19.890251913324263 215.35385210017256 H 0.0 **** 0.06
27910 H 205.26604465203198 20.82590901135157 214.57301969642984 H 0.0 **** 0.06
27911 C 33.04555263843997 163.84562993307767 130.52627828610102 C 0.0 **** -0.24
27912 H 32.357095040054475 163.1271532250656 130.97163985660413 H 0.0 **** 0.06
27913 H 32.60246119773521 164.25856365577908 129.62068992845147 H 0.0 **** 0.06
27914 H 33.98184818254876 163.34504334342213 130.2783159998149 H 0.0 **** 0.06
27915 H 33.24071193753093 164.64881266267346 131.2362859706378 H 0.0 **** 0.06
27916 C 239.6061410570796 190.06926336438028 214.6734839138553 C 0.0 **** -0.24
27917 H 238.9687386967405 190.9126137648061 214.4053367246807 H 0.0 **** 0.06
27918 H 240.28208503737835 190.36639693318375 215.47536915993095 H 0.0 **** 0.06
27919 H 240.18620672791565 189.7625580805411 213.8039189412065 H 0.0 **** 0.06
27920 H 238.9858247062774 189.23794573420997 215.0091611341263 H 0.0 **** 0.06
27921 C 193.4113291839904 179.87038833829257 63.12909142798014 C 0.0 **** -0.24
27922 H 192.90409123762103 178.92110791827318 62.955926991752676 H 0.0 **** 0.06
27923 H 193.53106528784537 180.39610374507566 62.18181156169382 H 0.0 **** 0.06
27924 H 194.39152413826645 179.68234468366643 63.56795132684624 H 0.0 **** 0.06
27925 H 192.8181622721696 180.47961207496212 63.810971931499665 H 0.0 **** 0.06
27926 C 90.72121320029524 73.43102040948995 52.28089656865053 C 0.0 **** -0.24
27927 H 91.61034442557653 73.53514863002758 52.9014523930815 H 0.0 **** 0.06
27928 H 90.24027426420903 74.4031804547254 52.16886905646811 H 0.0 **** 0.06
27929 H 90.0271593911263 72.73549438455686 52.75334067455441 H 0.0 **** 0.06
27930 H 91.00509019538114 73.05100267673069 51.29921181815011 H 0.0 **** 0.06
27931 C 55.32376769991626 5.838170433096877 211.902322179736 C 0.0 **** -0.24
27932 H 55.08919285100518 6.854954297352634 211.5873606226559 H 0.0 **** 0.06
27933 H 54.67663288022791 5.55683765332418 212.73342925271578 H 0.0 **** 0.06
27934 H 56.36515460468118 5.786352136909699 212.21836290116815 H 0.0 **** 0.06
27935 H 55.162891240638714 5.1541050041122105 211.06829889731762 H 0.0 **** 0.06
27936 C 77.1114478599608 159.94124394763818 99.56969172354385 C 0.0 **** -0.24
27937 H 76.21381707059524 160.11288606201856 98.976271541653 H 0.0 **** 0.06
27938 H 77.69576148678365 160.85980763772224 99.61907691493352 H 0.0 **** 0.06
27939 H 77.70719919053133 159.1541875197281 99.10787239079534 H 0.0 **** 0.06
27940 H 76.82659596853009 159.63691148610047 100.5768708151156 H 0.0 **** 0.06
27941 C 114.71664346577703 125.3133393659644 152.8374181234799 C 0.0 **** -0.24
27942 H 114.7638270650034 125.09154859273576 153.90454142940837 H 0.0 **** 0.06
27943 H 114.00339626883996 124.64210293419885 152.35846753798515 H 0.0 **** 0.06
27944 H 115.70178370318803 125.17409187999462 152.39456103705504 H 0.0 **** 0.06
27945 H 114.39691762430039 126.3459564463513 152.69615976344187 H 0.0 **** 0.06
27946 C 121.22982131632756 143.996446842765 93.88308960496758 C 0.0 **** -0.24
27947 H 120.99457905222229 142.99268003941455 94.23907817985045 H 0.0 **** 0.06
27948 H 121.8698642414717 143.92741425777524 93.002484618269 H 0.0 **** 0.06
27949 H 121.74913770840078 144.54681637621354 94.6673506752339 H 0.0 **** 0.06
27950 H 120.30736374079365 144.51552327789935 93.6234740398913 H 0.0 **** 0.06
27951 C 186.13229065794133 25.233778438959547 142.1513754849727 C 0.0 **** -0.24
27952 H 187.13038880273348 25.436484278528027 141.76387839001072 H 0.0 **** 0.06
27953 H 186.13706504875958 24.285071456377636 142.68857362418458 H 0.0 **** 0.06
27954 H 185.42637839629757 25.1787248050386 141.32211101915655 H 0.0 **** 0.06
27955 H 185.83628510815595 26.035267119155563 142.82812815622358 H 0.0 **** 0.06
27956 C 226.159000327539 86.59093563436826 217.55835426575672 C 0.0 **** -0.24
27957 H 227.14681434298484 86.55050105578485 218.01703507181526 H 0.0 **** 0.06
27958 H 225.53375799257103 87.29973480533323 218.10209899945596 H 0.0 **** 0.06
27959 H 225.70175118514095 85.60219926822901 217.5920467911895 H 0.0 **** 0.06
27960 H 226.25480504651352 86.91210162169725 216.52047592643294 H 0.0 **** 0.06
27961 C 170.07297137421244 88.4324629862299 175.27187419910007 C 0.0 **** -0.24
27962 H 170.62550880281032 87.77809315332581 175.9454252897699 H 0.0 **** 0.06
27963 H 169.98101200400907 87.95441344875425 174.29643958494552 H 0.0 **** 0.06
27964 H 170.60540869710707 89.37768215995118 175.16467446510444 H 0.0 **** 0.06
27965 H 169.07979198458827 88.61880353706627 175.68047359703053 H 0.0 **** 0.06
27966 C 170.3734665495511 111.45520375195383 232.9026160639317 C 0.0 **** -0.24
27967 H 169.70176002365932 110.62156445241882 233.10826730669805 H 0.0 **** 0.06
27968 H 171.15949656243225 111.12873258414979 232.22216036507342 H 0.0 **** 0.06
27969 H 170.81831698308847 111.80149819916915 233.83411903838424 H 0.0 **** 0.06
27970 H 169.8101354875422 112.26891027071159 232.44461126491177 H 0.0 **** 0.06
27971 C 77.46237093491808 113.75040243346541 115.58475475035735 C 0.0 **** -0.24
27972 H 78.0110920803873 113.16531498336394 114.84659057396576 H 0.0 **** 0.06
27973 H 76.44657207788481 113.36228796021243 115.67164793494993 H 0.0 **** 0.06
27974 H 77.42743419966286 114.79322353248654 115.26839395060276 H 0.0 **** 0.06
27975 H 77.96233759814208 113.679481222969 116.55012570251796 H 0.0 **** 0.06
27976 C 208.2145834372638 232.85905977125753 134.7251695325455 C 0.0 **** -0.24
27977 H 208.65425439182354 233.10912043669867 133.75978997951523 H 0.0 **** 0.06
27978 H 208.81055613444337 232.0843357840558 135.20627227067487 H 0.0 **** 0.06
27979 H 207.19672592182175 232.49621691742138 134.5774139081536 H 0.0 **** 0.06
27980 H 208.19526500526882 233.7484932768657 135.35581001392887 H 0.0 **** 0.06
27981 C 67.11780867974355 136.804747815215 56.653598940130735 C 0.0 **** -0.24
27982 H 67.0401068088656 137.57699475474243 55.888550805173224 H 0.0 **** 0.06
27983 H 66.45625203520333 137.05004397709948 57.48528288366941 H 0.0 **** 0.06
27984 H 68.14541646420898 136.7491768189772 57.01082388444712 H 0.0 **** 0.06
27985 H 66.82768101624387 135.84366242002275 56.2299642348616 H 0.0 **** 0.06
27986 C 221.9237856674724 49.655793389751864 31.66927500157479 C 0.0 **** -0.24
27987 H 221.7779973470105 48.95181988908101 30.850502361310703 H 0.0 **** 0.06
27988 H 222.76711309449547 49.33198072312646 32.280395931231126 H 0.0 **** 0.06
27989 H 221.02284755741658 49.69286856160058 32.281660111053455 H 0.0 **** 0.06
27990 H 222.12917755401335 50.64695547478972 31.26319067940105 H 0.0 **** 0.06
27991 C 130.44702804395754 36.4932374954078 142.21390280777112 C 0.0 **** -0.24
27992 H 129.7404014227103 36.34714068694588 143.03084779330288 H 0.0 **** 0.06
27993 H 131.37329829850577 36.91360347546154 142.60698986951132 H 0.0 **** 0.06
27994 H 130.0196845822723 37.17847615429315 141.48213022634837 H 0.0 **** 0.06
27995 H 130.65526913299755 35.53583192679194 141.7377139987274 H 0.0 **** 0.06
27996 C 125.6103242017659 201.2310673888622 87.10817901653783 C 0.0 **** -0.24
27997 H 126.02404876370275 200.24802757702648 86.88519633556947 H 0.0 **** 0.06
27998 H 126.00873143743377 201.5857039369523 88.05891145269166 H 0.0 **** 0.06
27999 H 124.52433813992783 201.16340794674426 87.17090891577351 H 0.0 **** 0.06
28000 H 125.88557033116143 201.92877006951994 86.31652750356315 H 0.0 **** 0.06
28001 C 35.236552892605545 13.7257831717601 159.59682285917376 C 0.0 **** -0.24
28002 H 34.91612445253739 14.38287112052295 158.7896465521014 H 0.0 **** 0.06
28003 H 35.67648513090228 14.3217234464433 160.39696059206142 H 0.0 **** 0.06
28004 H 35.9775057818682 13.020918169101435 159.2202771004706 H 0.0 **** 0.06
28005 H 34.37748898756651 13.177531945607086 159.98242026695365 H 0.0 **** 0.06
28006 C 4.276226237227348 196.36938311720536 235.5704213645979 C 0.0 **** -0.24
28007 H 3.9910880120388867 195.8410670944396 236.48040100469925 H 0.0 **** 0.06
28008 H 3.3787362459472945 196.65116355725544 235.01910196950345 H 0.0 **** 0.06
28009 H 4.894228760064067 195.7197338283351 234.9516263740129 H 0.0 **** 0.06
28010 H 4.838837687958431 197.26555983968058 235.83194996007944 H 0.0 **** 0.06
28011 C 31.491949364313626 229.3166719570038 116.99816870533618 C 0.0 **** -0.24
28012 H 30.71218407003741 230.0656733837548 116.86448809348525 H 0.0 **** 0.06
28013 H 31.207948101355413 228.63548723583128 117.80066246407526 H 0.0 **** 0.06
28014 H 32.42891215375434 229.81070284792034 117.25497948641083 H 0.0 **** 0.06
28015 H 31.6187531321074 228.75482436050893 116.07254477737325 H 0.0 **** 0.06
28016 C 121.6817263295815 19.246275802335376 239.17314307016062 C 0.0 **** -0.24
28017 H 121.52846365693046 19.632139377391212 240.1805925310231 H 0.0 **** 0.06
28018 H 122.29513274604102 19.945954409952748 238.60539842349314 H 0.0 **** 0.06
28019 H 120.71686618241463 19.126062630650864 238.67975552879653 H 0.0 **** 0.06
28020 H 122.18517045981523 18.281427525172745 239.22643819500843 H 0.0 **** 0.06
28021 C 48.85032526628093 53.76916180395068 26.19688430140137 C 0.0 **** -0.24
28022 H 47.96372353954976 53.545902214667905 26.789367289949197 H 0.0 **** 0.06
28023 H 49.50456321177383 54.435934278880694 26.759519846684412 H 0.0 **** 0.06
28024 H 48.55279774326699 54.251233979612465 25.265598437341566 H 0.0 **** 0.06
28025 H 49.380246414267035 52.84267050650584 25.972629902860305 H 0.0 **** 0.06
28026 C 135.4380399129277 62.172257573832695 99.56918392996027 C 0.0 **** -0.24
28027 H 134.83437803008027 62.951018476060284 100.03473666883139 H 0.0 **** 0.06
28028 H 134.78239835433746 61.414516630535644 99.13866634493226 H 0.0 **** 0.06
28029 H 136.0803671039583 61.71260721330697 100.31928650917285 H 0.0 **** 0.06
28030 H 136.05267922935124 62.61100677570499 98.78332184583246 H 0.0 **** 0.06
28031 C 108.96524139463006 34.26089247884467 230.91479463376675 C 0.0 **** -0.24
28032 H 109.53444509498524 33.62600159271622 230.2369375217298 H 0.0 **** 0.06
28033 H 109.51668279306082 34.38241173957596 231.84750575156124 H 0.0 **** 0.06
28034 H 107.99985339370164 33.80008175299386 231.12042789246027 H 0.0 **** 0.06
28035 H 108.81140471601191 35.23706588039316 230.45444222594298 H 0.0 **** 0.06
28036 C 165.43375304246973 177.96685887112517 81.97489376238678 C 0.0 **** -0.24
28037 H 166.49686055097987 177.7576534009298 81.85791487017772 H 0.0 **** 0.06
28038 H 165.15154364817207 177.8357959371364 83.02029605316889 H 0.0 **** 0.06
28039 H 164.85733497741913 177.28197835557233 81.35420265733251 H 0.0 **** 0.06
28040 H 165.23013303629347 178.99360239455154 81.66955263025417 H 0.0 **** 0.06
28041 C 89.25425332477226 120.86237762568632 193.54619576585344 C 0.0 **** -0.24
28042 H 88.44767429063143 121.59459734682989 193.5564475082929 H 0.0 **** 0.06
28043 H 89.66770807713488 120.76359654077942 194.55046816186552 H 0.0 **** 0.06
28044 H 90.03568057583485 121.19338609440541 192.86212309832885 H 0.0 **** 0.06
28045 H 88.8664399176647 119.8989259614086 193.2166214757558 H 0.0 **** 0.06
28046 C 83.03102975090886 57.82974149344989 200.12094451531277 C 0.0 **** -0.24
28047 H 83.91765043762919 57.528987104662775 199.56299010658245 H 0.0 **** 0.06
28048 H 83.32443738702167 58.16208038909829 201.1163963626273 H 0.0 **** 0.06
28049 H 82.35055867608986 56.98249471501768 200.20521539124013 H 0.0 **** 0.06
28050 H 82.53260895398151 58.64563902438866 199.59659681912004 H 0.0 **** 0.06
28051 C 164.0394224301208 104.18343322055813 74.14445372079098 C 0.0 **** -0.24
28052 H 164.61579353333255 103.48334982420528 73.53921313739698 H 0.0 **** 0.06
28053 H 163.47924829273813 104.85276420247422 73.49004974738546 H 0.0 **** 0.06
28054 H 164.71506371300427 104.76678040053096 74.76872167438691 H 0.0 **** 0.06
28055 H 163.34571260974658 103.62974019330167 74.77678218078378 H 0.0 **** 0.06
28056 C 72.9029027992826 66.49161197804838 227.94208609197705 C 0.0 **** -0.24
28057 H 72.64206927099173 65.60202839379437 228.51632602122697 H 0.0 **** 0.06
28058 H 73.88082324525013 66.35319708191602 227.48108881867034 H 0.0 **** 0.06
28059 H 72.93243766321785 67.35536722748535 228.60622021181098 H 0.0 **** 0.06
28060 H 72.15406176253208 66.65420123983816 227.1672271384681 H 0.0 **** 0.06
28061 C 18.749766045780092 190.63709492409316 98.70146381253852 C 0.0 **** -0.24
28062 H 19.22805699884097 189.91181747034582 98.04302174931013 H 0.0 **** 0.06
28063 H 17.670668550599913 190.4804822871768 98.69148100674869 H 0.0 **** 0.06
28064 H 18.97474914410313 191.6453326469337 98.35490810190197 H 0.0 **** 0.06
28065 H 19.126078419479114 190.5090863633241 99.71639650718339 H 0.0 **** 0.06
28066 C 163.64078766585706 74.12410992512514 106.30842362107407 C 0.0 **** -0.24
28067 H 162.90312818507815 73.32321025821639 106.35385245075682 H 0.0 **** 0.06
28068 H 163.92786921349204 74.4101462879454 107.32020420576157 H 0.0 **** 0.06
28069 H 163.2109152373339 74.9843799469169 105.79512959614553 H 0.0 **** 0.06
28070 H 164.51887840995178 73.77805029320814 105.76458547389109 H 0.0 **** 0.06
28071 C 24.286563267565185 12.806198093097322 130.82445013756046 C 0.0 **** -0.24
28072 H 24.577859755291087 12.593202674719095 131.8530739166185 H 0.0 **** 0.06
28073 H 23.617376645606413 13.666775055219915 130.80756428505364 H 0.0 **** 0.06
28074 H 23.77593272429968 11.939024128648356 130.40546405845728 H 0.0 **** 0.06
28075 H 25.175555671003252 13.025009083746994 130.23317031963666 H 0.0 **** 0.06
28076 C 164.93525368273137 107.77117469116519 172.08882399304412 C 0.0 **** -0.24
28077 H 164.44510336671073 106.87333900745179 172.46702543985592 H 0.0 **** 0.06
28078 H 164.49095079930527 108.65043391556043 172.55615764359644 H 0.0 **** 0.06
28079 H 164.8051880161369 107.82758517189572 171.00857895666 H 0.0 **** 0.06
28080 H 165.9991231901671 107.73062974133956 172.32559046248895 H 0.0 **** 0.06
28081 C 185.1087089247075 178.52584306606138 43.25517469631771 C 0.0 **** -0.24
28082 H 186.02013479584616 178.2643102029505 42.71705201742745 H 0.0 **** 0.06
28083 H 185.3677472371096 178.91132473139476 44.24117652463602 H 0.0 **** 0.06
28084 H 184.48432091077524 177.63871911489315 43.36431808270288 H 0.0 **** 0.06
28085 H 184.56368700401953 179.2881419798552 42.69849970999317 H 0.0 **** 0.06
28086 C 116.43499512140994 188.73481787305138 10.13685830620615 C 0.0 **** -0.24
28087 H 116.74860648597382 189.66309310565427 10.613275731443835 H 0.0 **** 0.06
28088 H 117.30040973697629 188.08696926451788 9.997724227980655 H 0.0 **** 0.06
28089 H 115.98732433339529 188.95709660091822 9.16724002048855 H 0.0 **** 0.06
28090 H 115.70233111576135 188.2321466589907 10.76805928241049 H 0.0 **** 0.06
28091 C 69.32993045943206 182.86433469140897 229.90307996400244 C 0.0 **** -0.24
28092 H 68.59785994628913 183.24850017760636 230.61348211266483 H 0.0 **** 0.06
28093 H 69.74394161390089 181.92903611222025 230.27874456588012 H 0.0 **** 0.06
28094 H 70.13050895079476 183.59293018484703 229.77805897218408 H 0.0 **** 0.06
28095 H 68.84565883292319 182.689481153906 228.94238448648935 H 0.0 **** 0.06
28096 C 126.94604310704793 202.61255093558444 122.11879804337076 C 0.0 **** -0.24
28097 H 127.92598733417273 202.57097011929994 121.64204870855346 H 0.0 **** 0.06
28098 H 127.06426676663907 202.88867172486442 123.16687106119119 H 0.0 **** 0.06
28099 H 126.4680187293325 201.63613151803736 122.05128235325878 H 0.0 **** 0.06
28100 H 126.32851671376474 203.35534478921318 121.6144291233334 H 0.0 **** 0.06
28101 C 200.24619061696953 12.797321797956073 139.1710864004444 C 0.0 **** -0.24
28102 H 199.99265462196618 13.84218155901739 138.99398716008298 H 0.0 **** 0.06
28103 H 200.8079716480107 12.410414874409483 138.32156084822137 H 0.0 **** 0.06
28104 H 199.33070831270558 12.21808949819031 139.2955479299908 H 0.0 **** 0.06
28105 H 200.85147487267082 12.718583182797985 140.07368030746008 H 0.0 **** 0.06
28106 C 149.93106889959722 149.86078317936563 6.000755235521694 C 0.0 **** -0.24
28107 H 148.84754061398988 149.78278195161354 5.911140324598961 H 0.0 **** 0.06
28108 H 150.21268123314695 150.90977615306497 6.092438405881325 H 0.0 **** 0.06
28109 H 150.4003031040902 149.43450457037008 5.113386997572093 H 0.0 **** 0.06
28110 H 150.26316283876267 149.31669491856974 6.884550541216726 H 0.0 **** 0.06
28111 C 31.106381141848573 28.51260870097238 223.70199347437196 C 0.0 **** -0.24
28112 H 30.19481959515491 29.068639824451594 223.48209233986242 H 0.0 **** 0.06
28113 H 30.896595141055528 27.75796008426491 224.4596456787267 H 0.0 **** 0.06
28114 H 31.869567004798824 29.19702885698129 224.07094055325075 H 0.0 **** 0.06
28115 H 31.462447147924138 28.02656735309617 222.79341085248197 H 0.0 **** 0.06
28116 C 135.88232012577402 212.1306822323231 77.80585456978372 C 0.0 **** -0.24
28117 H 135.2515554077263 212.64691561622104 77.08244422372181 H 0.0 **** 0.06
28118 H 135.9028118939959 211.06503479970343 77.57615865671329 H 0.0 **** 0.06
28119 H 135.4821926766121 212.2795061469552 78.80810454997743 H 0.0 **** 0.06
28120 H 136.8949881702551 212.53203034247085 77.75617857563745 H 0.0 **** 0.06
28121 C 21.925087285947725 224.07041779725398 108.34093805572039 C 0.0 **** -0.24
28122 H 22.795463340694724 223.4355790304454 108.17647885758902 H 0.0 **** 0.06
28123 H 21.59465951425325 223.97134727804183 109.37524463292084 H 0.0 **** 0.06
28124 H 21.120953722699824 223.76417084490376 107.67159689537624 H 0.0 **** 0.06
28125 H 22.189092667225168 225.1083541288104 108.14145149798753 H 0.0 **** 0.06
28126 C 186.45217062178307 26.829075789169707 26.418973751717218 C 0.0 **** -0.24
28127 H 187.25079235600538 27.56758777621431 26.351646669197507 H 0.0 **** 0.06
28128 H 186.87812968096154 25.82636626187879 26.358998124690203 H 0.0 **** 0.06
28129 H 185.7522233814248 26.975821758217705 25.596146276324816 H 0.0 **** 0.06
28130 H 185.9283396717703 26.945456160426048 27.36705249387491 H 0.0 **** 0.06
28131 C 59.63090515750736 211.95272301144703 27.03792678156624 C 0.0 **** -0.24
28132 H 60.234141517689864 211.22883803781318 26.490574973436267 H 0.0 **** 0.06
28133 H 59.93308466695751 212.96256719805643 26.75979761137539 H 0.0 **** 0.06
28134 H 59.77506509687137 211.81114793280597 28.109174643135347 H 0.0 **** 0.06
28135 H 58.57813464507129 211.8081536510871 26.79128830875453 H 0.0 **** 0.06
28136 C 77.09882523841674 6.265039624736772 134.30692460380146 C 0.0 **** -0.24
28137 H 78.06728506462662 6.712062842234616 134.08211050533143 H 0.0 **** 0.06
28138 H 76.66040361706001 5.870801833686102 133.38955628857065 H 0.0 **** 0.06
28139 H 76.43909105036693 7.022088249034226 134.7292428927762 H 0.0 **** 0.06
28140 H 77.23045923816082 5.455201065445664 135.02472859517366 H 0.0 **** 0.06
28141 C 97.69918373057257 167.29305291063724 16.838349690505055 C 0.0 **** -0.24
28142 H 98.22075016362314 168.24860807091378 16.90287388835594 H 0.0 **** 0.06
28143 H 96.98514201242571 167.2134908535323 17.658573368013634 H 0.0 **** 0.06
28144 H 98.42124628082465 166.4798078802285 16.90461999801093 H 0.0 **** 0.06
28145 H 97.16946265201486 167.2321876723522 15.887992618260427 H 0.0 **** 0.06
28146 C 164.08099435032867 82.46056578518659 88.21126864077496 C 0.0 **** -0.24
28147 H 164.13422309109006 83.34034241398427 87.56950516451991 H 0.0 **** 0.06
28148 H 164.90213796761662 81.7862151173216 87.97053248924016 H 0.0 **** 0.06
28149 H 163.13158860849438 81.95101416188112 88.04982998486543 H 0.0 **** 0.06
28150 H 164.15618981067541 82.76745781489163 89.25464033743734 H 0.0 **** 0.06
28151 C 123.9906490033822 132.12144266642883 143.63651552383487 C 0.0 **** -0.24
28152 H 122.92169633699157 132.2865644502852 143.769419841149 H 0.0 **** 0.06
28153 H 124.16999954360207 131.6755336680675 142.65847865712198 H 0.0 **** 0.06
28154 H 124.35406162648735 131.4498974465153 144.415058947442 H 0.0 **** 0.06
28155 H 124.51621953286784 133.0738704267578 143.70388426133476 H 0.0 **** 0.06
28156 C 4.849803999274599 123.35401732817442 35.227979963334334 C 0.0 **** -0.24
28157 H 4.45827681086449 122.36192885996883 35.45298552239379 H 0.0 **** 0.06
28158 H 4.684921729076194 123.57842864887962 34.17328665108239 H 0.0 **** 0.06
28159 H 5.917791226774341 123.38129909467841 35.4431439743347 H 0.0 **** 0.06
28160 H 4.335890468834492 124.09468178385296 35.841816773777765 H 0.0 **** 0.06
28161 C 196.092377520026 20.726072100950006 107.64526715533302 C 0.0 **** -0.24
28162 H 195.36942229884414 19.94325210643248 107.8748083803188 H 0.0 **** 0.06
28163 H 196.56296941986642 21.06648522148899 108.56798691047172 H 0.0 **** 0.06
28164 H 195.58322720337628 21.561615056506724 107.16608088398132 H 0.0 **** 0.06
28165 H 196.85367185734214 20.331413906388576 106.97298938350409 H 0.0 **** 0.06
28166 C 121.56328527572222 129.30897477813508 241.66887894207656 C 0.0 **** -0.24
28167 H 120.59618783048492 128.82876733549375 241.5187592714152 H 0.0 **** 0.06
28168 H 122.26412203706897 128.9576717542642 240.91074201470914 H 0.0 **** 0.06
28169 H 121.94330098484485 129.05879704979975 242.65936101342407 H 0.0 **** 0.06
28170 H 121.44828794333645 130.3892897567776 241.58540007381708 H 0.0 **** 0.06
28171 C 127.5700311191707 53.84614236005274 122.68450441821227 C 0.0 **** -0.24
28172 H 128.06714931643845 53.024642863691156 123.19850502696687 H 0.0 **** 0.06
28173 H 128.02079891259007 53.98540501513369 121.70182752334625 H 0.0 **** 0.06
28174 H 127.6792272778421 54.76003449499029 123.26839219265958 H 0.0 **** 0.06
28175 H 126.51050656149897 53.61446602211879 122.56910784288499 H 0.0 **** 0.06
28176 C 40.472436711995286 191.7017845577842 157.61169387431758 C 0.0 **** -0.24
28177 H 39.44347300075496 191.60927432055226 157.26297462611893 H 0.0 **** 0.06
28178 H 40.48562699318465 191.73017991281992 158.701351752556 H 0.0 **** 0.06
28179 H 40.907776439873416 192.6198908761727 157.2183712724097 H 0.0 **** 0.06
28180 H 41.051848354122924 190.84650419599672 157.2635355425009 H 0.0 **** 0.06
28181 C 213.13507179889132 80.67080767072449 63.01975209641077 C 0.0 **** -0.24
28182 H 213.03610465550668 79.58555148180827 62.996213229279135 H 0.0 **** 0.06
28183 H 214.19128830196104 80.93950953212513 62.99416732074613 H 0.0 **** 0.06
28184 H 212.6838890432074 81.0571369135711 63.933599132020845 H 0.0 **** 0.06
28185 H 212.6295281930876 81.10023320367887 62.155323999514394 H 0.0 **** 0.06
28186 C 64.14883832968133 26.131300541231482 59.22012489308787 C 0.0 **** -0.24
28187 H 64.08069332046438 25.089783019119764 58.90811677660463 H 0.0 **** 0.06
28188 H 64.07529221337634 26.778426674135602 58.34683496790822 H 0.0 **** 0.06
28189 H 65.10425546688052 26.298590100917522 59.71802836986717 H 0.0 **** 0.06
28190 H 63.3353467469766 26.35732304182828 59.90970581351294 H 0.0 **** 0.06
28191 C 217.05083634929252 180.2841364499953 47.586750246668075 C 0.0 **** -0.24
28192 H 217.41715820340636 179.88785285979404 48.53415522410069 H 0.0 **** 0.06
28193 H 217.70111900540377 181.09534499663934 47.25613453195261 H 0.0 **** 0.06
28194 H 216.03683955055232 180.66136016393042 47.717873573097606 H 0.0 **** 0.06
28195 H 217.04921077323002 179.4921026603109 46.83741560208979 H 0.0 **** 0.06
28196 C 70.38020419969402 132.77782895891332 20.26048518126626 C 0.0 **** -0.24
28197 H 69.30373166032277 132.9476411489339 20.24629862055012 H 0.0 **** 0.06
28198 H 70.85285562020081 133.49747131580577 20.92904937674102 H 0.0 **** 0.06
28199 H 70.77925431799221 132.90096356247884 19.253623998070566 H 0.0 **** 0.06
28200 H 70.5839998595221 131.76612820708542 20.61027437525007 H 0.0 **** 0.06
28201 C 169.0271400349095 242.04049142451163 162.9420561308307 C 0.0 **** -0.24
28202 H 169.35983279905378 242.85614735071454 163.58546775790364 H 0.0 **** 0.06
28203 H 169.6836177383377 241.18072859241363 163.07726881425918 H 0.0 **** 0.06
28204 H 169.05855648077022 242.36318396823918 161.90207964828795 H 0.0 **** 0.06
28205 H 168.0065774229259 241.76429369117957 163.2070548775044 H 0.0 **** 0.06
28206 C 178.7323093485133 28.846301217982514 60.20856533604851 C 0.0 **** -0.24
28207 H 177.97173308634677 29.52351978853231 60.59691482346162 H 0.0 **** 0.06
28208 H 179.39859010790818 28.546907175614706 61.018147163133335 H 0.0 **** 0.06
28209 H 179.30754890900093 29.352181095678915 59.433499170490364 H 0.0 **** 0.06
28210 H 178.25173218050952 27.963435028122333 59.78797237642098 H 0.0 **** 0.06
28211 C 39.35537640355564 36.61131311482772 172.95199003029626 C 0.0 **** -0.24
28212 H 39.18829555757405 36.88244269393289 173.9951876753942 H 0.0 **** 0.06
28213 H 40.37975741348832 36.858119149537075 172.67298842302188 H 0.0 **** 0.06
28214 H 38.66236814125189 37.16454130738734 172.31835000500314 H 0.0 **** 0.06
28215 H 39.19050338492839 35.54207082291529 172.8245915835299 H 0.0 **** 0.06
28216 C 116.96516846824505 96.47659925800585 240.54427118105036 C 0.0 **** -0.24
28217 H 116.23000655788115 95.92569708968063 239.95791179267593 H 0.0 **** 0.06
28218 H 117.64386156392908 95.77323088735801 241.02817013723586 H 0.0 **** 0.06
28219 H 116.45488706547701 97.0701080574342 241.30279920498208 H 0.0 **** 0.06
28220 H 117.53276269423966 97.1364583073701 239.88751597060053 H 0.0 **** 0.06
28221 C 108.9683428302458 157.29467894598915 9.39055373972539 C 0.0 **** -0.24
28222 H 109.61763203587495 157.31808839688856 8.515183476928968 H 0.0 **** 0.06
28223 H 109.34736613842932 156.56286719002705 10.104502241226612 H 0.0 **** 0.06
28224 H 107.95943830818445 157.01659657976816 9.085748175096143 H 0.0 **** 0.06
28225 H 108.94965315212642 158.27981244063022 9.855150606851254 H 0.0 **** 0.06
28226 C 40.794988997021306 185.31895284984037 243.36200010359363 C 0.0 **** -0.24
28227 H 40.41008387788257 186.28476662871628 243.03338426257443 H 0.0 **** 0.06
28228 H 41.88334418186689 185.31863034285777 243.2906946251298 H 0.0 **** 0.06
28229 H 40.3891415126035 184.53160098176426 242.72679743953407 H 0.0 **** 0.06
28230 H 40.498149679959155 185.14186780208553 244.39530589855946 H 0.0 **** 0.06
28231 C 10.07746794407177 26.954536862932017 191.69631979326047 C 0.0 **** -0.24
28232 H 9.768539586168401 27.73613250579635 192.38971728410405 H 0.0 **** 0.06
28233 H 10.468164156189829 26.105578099349387 192.25679017675503 H 0.0 **** 0.06
28234 H 10.852941222347141 27.341408432487412 191.0348070137038 H 0.0 **** 0.06
28235 H 9.2207091751971 26.635189661620785 191.1031036907464 H 0.0 **** 0.06
28236 C 122.04859792479698 62.11497848332937 62.30597112717268 C 0.0 **** -0.24
28237 H 122.39143067497614 62.209732686701216 61.27548875548371 H 0.0 **** 0.06
28238 H 122.77204450042484 62.582336043146256 62.97349455415164 H 0.0 **** 0.06
28239 H 121.9494654759539 61.05970890640836 62.559477424163646 H 0.0 **** 0.06
28240 H 121.08257314702817 62.60764184478725 62.413843759292064 H 0.0 **** 0.06
28241 C 177.11840309621886 225.93751739549472 83.62869402111392 C 0.0 **** -0.24
28242 H 177.62029982103866 226.5762093952246 84.35503951009477 H 0.0 **** 0.06
28243 H 177.7890938431463 225.74301214080148 82.7908084605543 H 0.0 **** 0.06
28244 H 176.2198303387467 226.43665275701454 83.2654152524965 H 0.0 **** 0.06
28245 H 176.8442615647847 224.99505329176358 84.1023958259322 H 0.0 **** 0.06
28246 C 86.06356984433535 129.9792121100877 25.1601617719422 C 0.0 **** -0.24
28247 H 85.53983344999537 129.10372705799577 25.545066552212973 H 0.0 **** 0.06
28248 H 86.2868554930453 130.6591372393075 25.982617796007872 H 0.0 **** 0.06
28249 H 85.4340859102999 130.48604698829075 24.429635290968506 H 0.0 **** 0.06
28250 H 86.99353921017862 129.66602241630392 24.684854744212842 H 0.0 **** 0.06
28251 C 210.5564841555364 230.33635870774418 242.0742308315709 C 0.0 **** -0.24
28252 H 209.5084098227715 230.40349041510697 241.78223922703916 H 0.0 **** 0.06
28253 H 211.12870662879905 231.10234862738457 241.55178902272252 H 0.0 **** 0.06
28254 H 210.9428679762543 229.35099230211182 241.8140882611376 H 0.0 **** 0.06
28255 H 210.6427673732926 230.48770096289803 243.15055109251801 H 0.0 **** 0.06
28256 C 136.9622672329331 125.0989122920673 54.13738656858828 C 0.0 **** -0.24
28257 H 137.3692352013567 124.11182993698014 54.355712154155015 H 0.0 **** 0.06
28258 H 137.35717223687982 125.81994219822698 54.85301669648405 H 0.0 **** 0.06
28259 H 135.87543943520416 125.06762319709762 54.213412210463105 H 0.0 **** 0.06
28260 H 137.24826433697606 125.39406134651608 53.12707855809845 H 0.0 **** 0.06
28261 C 102.36442344665988 188.4149872674024 175.4740735187416 C 0.0 **** -0.24
28262 H 102.44770030438806 189.44446157222504 175.12625577034697 H 0.0 **** 0.06
28263 H 101.32821271362315 188.20357334871122 175.73814366349723 H 0.0 **** 0.06
28264 H 102.99751718691971 188.27584326914217 176.35021838683446 H 0.0 **** 0.06
28265 H 102.68465661052406 187.73722428173386 174.6835511517242 H 0.0 **** 0.06
28266 C 153.77899496532504 172.26039367129832 234.74880646171363 C 0.0 **** -0.24
28267 H 154.28966341387817 171.6597852051013 235.50114001097995 H 0.0 **** 0.06
28268 H 152.8860606066804 171.7344788241204 234.4090191957668 H 0.0 **** 0.06
28269 H 154.44597793936285 172.42775282103221 233.903728248778 H 0.0 **** 0.06
28270 H 153.49343526008383 173.21907945424857 235.1815856104638 H 0.0 **** 0.06
28271 C 136.6964266715164 239.21182945975033 124.24119211125122 C 0.0 **** -0.24
28272 H 136.2502281082684 238.99305595716123 125.21205903300074 H 0.0 **** 0.06
28273 H 135.95968353824972 239.03987614645865 123.45572461063963 H 0.0 **** 0.06
28274 H 137.5564537470349 238.56252285674856 124.0825544194467 H 0.0 **** 0.06
28275 H 137.0173753751957 240.25338746978963 124.21722518553045 H 0.0 **** 0.06
28276 C 47.16906194848754 231.82431122376298 64.20479599690532 C 0.0 **** -0.24
28277 H 46.49128570507122 232.67531076104873 64.13822483515153 H 0.0 **** 0.06
28278 H 46.5932450204472 230.89926464761282 64.16888957829806 H 0.0 **** 0.06
28279 H 47.72169523233626 231.8718142540471 65.14347884611522 H 0.0 **** 0.06
28280 H 47.868189936596124 231.85001740143565 63.3695614145569 H 0.0 **** 0.06
28281 C 223.73800755958678 68.46224291663879 231.820818249496 C 0.0 **** -0.24
28282 H 223.45976184284746 67.79798300118824 231.00212620553725 H 0.0 **** 0.06
28283 H 223.73596902732925 69.49323903514772 231.4687281962589 H 0.0 **** 0.06
28284 H 224.73478435744084 68.20053692862444 232.1771363223621 H 0.0 **** 0.06
28285 H 223.02101367617436 68.3540966277813 232.6354793652465 H 0.0 **** 0.06
28286 C 83.34689440442531 79.23165645926477 243.67656726079684 C 0.0 **** -0.24
28287 H 82.50757486967186 78.53828255828122 243.6197524345822 H 0.0 **** 0.06
28288 H 83.1977437901239 80.04148136020703 242.9616733503599 H 0.0 **** 0.06
28289 H 84.27110413062763 78.70396912681505 243.44050575915855 H 0.0 **** 0.06
28290 H 83.41115482727773 79.64289279175566 244.68433749908672 H 0.0 **** 0.06
28291 C 123.01386567958846 88.73732909453562 197.85809073648807 C 0.0 **** -0.24
28292 H 123.31421224090451 88.6442493525984 196.81437349751974 H 0.0 **** 0.06
28293 H 122.07638635608521 88.2030809083304 198.01548187957468 H 0.0 **** 0.06
28294 H 122.87700954553114 89.7902023186185 198.10402556170538 H 0.0 **** 0.06
28295 H 123.78711069513145 88.31179328496316 198.497279272358 H 0.0 **** 0.06
28296 C 0.696516624052876 164.27205737413703 89.12471064748567 C 0.0 **** -0.24
28297 H 0.8652344738748639 164.71282947925516 88.14196560844877 H 0.0 **** 0.06
28298 H 1.1099211805176878 163.2637236609835 89.14552805326352 H 0.0 **** 0.06
28299 H -0.37449882560382264 164.2291673925512 89.32480295964959 H 0.0 **** 0.06
28300 H 1.1842989911543782 164.8819369648279 89.88469144326737 H 0.0 **** 0.06
28301 C 173.50869877055933 109.17700145324304 147.58288976958715 C 0.0 **** -0.24
28302 H 173.80763147386335 108.9803585397068 148.61287442007767 H 0.0 **** 0.06
28303 H 173.33006488087568 110.24449822940704 147.45360660718424 H 0.0 **** 0.06
28304 H 172.59575693475196 108.62563082124561 147.35828078068755 H 0.0 **** 0.06
28305 H 174.30165259174885 108.85620050974711 146.90720599556184 H 0.0 **** 0.06
28306 C 231.59112102829488 20.298075158799435 143.6125278193615 C 0.0 **** -0.24
28307 H 231.72196863908766 19.910588262705545 142.60230290657086 H 0.0 **** 0.06
28308 H 231.21810481256026 21.321227151716897 143.56266325482923 H 0.0 **** 0.06
28309 H 232.54899960428853 20.284871310467196 144.13277858934268 H 0.0 **** 0.06
28310 H 230.87612534341238 19.67531273240317 144.15026911500638 H 0.0 **** 0.06
28311 C 20.741476734521655 63.188372283478344 205.87525706934431 C 0.0 **** -0.24
28312 H 20.198229092156424 63.98947728268766 205.37480793016908 H 0.0 **** 0.06
28313 H 20.062849268792974 62.64533850004784 206.53301131027797 H 0.0 **** 0.06
28314 H 21.55573896584781 63.613071267029454 206.46248816723164 H 0.0 **** 0.06
28315 H 21.14845045064814 62.505347924844756 205.1294851932853 H 0.0 **** 0.06
28316 C 46.43307102988676 115.82104420517143 225.97653173749268 C 0.0 **** -0.24
28317 H 47.158352840396816 115.9749184711078 225.17700338715395 H 0.0 **** 0.06
28318 H 46.70561880918669 114.93268282963118 226.54761698344623 H 0.0 **** 0.06
28319 H 45.44171849124683 115.68552810113366 225.54536809286407 H 0.0 **** 0.06
28320 H 46.42900294955243 116.68876075820401 226.63515453548024 H 0.0 **** 0.06
28321 C 177.63695095122927 27.885484882160654 118.46984646336134 C 0.0 **** -0.24
28322 H 178.11610026292448 26.982969621260324 118.85039700943722 H 0.0 **** 0.06
28323 H 176.67156687500875 27.626886909510603 118.03485997795318 H 0.0 **** 0.06
28324 H 178.2706117217092 28.33831467571629 117.70592382650796 H 0.0 **** 0.06
28325 H 177.49090071780637 28.592374958889806 119.28616399406687 H 0.0 **** 0.06
28326 C 127.94465082676942 58.73480617550172 211.70938087424398 C 0.0 **** -0.24
28327 H 128.79860598758194 58.08651631493919 211.90776035043737 H 0.0 **** 0.06
28328 H 128.26925197846737 59.59073820726505 211.1162569118881 H 0.0 **** 0.06
28329 H 127.52635123031439 59.083892796703054 212.65301456352876 H 0.0 **** 0.06
28330 H 127.18617802296541 58.178720244770744 211.1589410440305 H 0.0 **** 0.06
28331 C 104.78336957627138 26.377411889559284 80.01483717043558 C 0.0 **** -0.24
28332 H 103.85275402766965 26.627400116130985 80.52443029982189 H 0.0 **** 0.06
28333 H 105.19683453903676 27.274811461718542 79.55440660760135 H 0.0 **** 0.06
28334 H 104.58692587871616 25.630827890895517 79.24611565774293 H 0.0 **** 0.06
28335 H 105.49613245800978 25.977651177980277 80.73619077152478 H 0.0 **** 0.06
28336 C 22.89686431152704 13.725170149392937 62.69585837055973 C 0.0 **** -0.24
28337 H 23.36637295104579 14.539612372639581 62.14504981748965 H 0.0 **** 0.06
28338 H 22.01887712278284 14.100178433248388 63.22103152740891 H 0.0 **** 0.06
28339 H 23.606806287698078 13.318984024820352 63.417569399264465 H 0.0 **** 0.06
28340 H 22.59839817639613 12.940651725010241 62.00044886713303 H 0.0 **** 0.06
28341 C 93.99030366494159 88.28280647493324 135.49096443729977 C 0.0 **** -0.24
28342 H 94.38186692333855 87.98094203152661 136.46152027040532 H 0.0 **** 0.06
28343 H 93.26147905106987 87.54831322198373 135.14841092071464 H 0.0 **** 0.06
28344 H 94.80800674801489 88.34531107066769 134.7731598612202 H 0.0 **** 0.06
28345 H 93.51017470876272 89.25766679667092 135.57982451898957 H 0.0 **** 0.06
28346 C 176.88137118313767 228.99635007657736 183.50596022022143 C 0.0 **** -0.24
28347 H 177.13431072951062 230.0381492711634 183.3133736769547 H 0.0 **** 0.06
28348 H 175.9853294326228 228.94852415638374 184.1240794833408 H 0.0 **** 0.06
28349 H 177.70800943652705 228.51084598896097 184.02558947008475 H 0.0 **** 0.06
28350 H 176.69759977210686 228.48595851470645 182.55968060677276 H 0.0 **** 0.06
28351 C 141.04319007239582 135.64004864878325 123.94047214845708 C 0.0 **** -0.24
28352 H 140.02035881128904 135.68338470277945 123.56670114435374 H 0.0 **** 0.06
28353 H 141.73690622454217 135.61729456607466 123.10024972705207 H 0.0 **** 0.06
28354 H 141.171730487837 134.73989905263338 124.5425299916314 H 0.0 **** 0.06
28355 H 141.24358879280217 136.51854549824967 124.55375773180145 H 0.0 **** 0.06
28356 C 32.422136699453404 242.12545813203732 10.231426038506783 C 0.0 **** -0.24
28357 H 32.94237480489062 241.2103826830722 10.513654316911783 H 0.0 **** 0.06
28358 H 32.66847669198059 242.38014159254888 9.20035740965423 H 0.0 **** 0.06
28359 H 32.732103592149045 242.93639360425635 10.890143542095501 H 0.0 **** 0.06
28360 H 31.34679937776427 241.9750895118127 10.322263712529008 H 0.0 **** 0.06
28361 C 115.57174904573881 208.42185111205123 110.16251631453139 C 0.0 **** -0.24
28362 H 114.94169916185888 207.57259088028738 110.42577049937358 H 0.0 **** 0.06
28363 H 115.95605011405513 208.88379042046247 111.07164024899566 H 0.0 **** 0.06
28364 H 114.98502138771926 209.15068221288772 109.60364473026866 H 0.0 **** 0.06
28365 H 116.40500972959401 208.07917288896644 109.548865893427 H 0.0 **** 0.06
28366 C 124.79658217649558 87.80753144360489 231.63054476500807 C 0.0 **** -0.24
28367 H 124.1948911584546 88.63429566417844 232.0074922509235 H 0.0 **** 0.06
28368 H 125.49343242132127 87.48411560587834 232.40382576297858 H 0.0 **** 0.06
28369 H 125.35348015421786 88.13487729257523 230.75351233072112 H 0.0 **** 0.06
28370 H 124.14360420297282 86.97809003127702 231.35860675622575 H 0.0 **** 0.06
28371 C 118.64272280877466 119.2541111729482 139.63920887858126 C 0.0 **** -0.24
28372 H 119.58967753179124 119.56976453298921 140.0755187048587 H 0.0 **** 0.06
28373 H 118.62337449755927 119.52018352692943 138.5821881986278 H 0.0 **** 0.06
28374 H 117.82222140854563 119.75294030235915 140.15464705847742 H 0.0 **** 0.06
28375 H 118.53587446105468 118.17449130781989 139.74472639715685 H 0.0 **** 0.06
28376 C 98.60016738897076 217.78729436066203 109.77675386952339 C 0.0 **** -0.24
28377 H 98.25246254694002 218.6618155203493 109.22621989266523 H 0.0 **** 0.06
28378 H 97.86989607911246 217.52565450463197 110.54307558886353 H 0.0 **** 0.06
28379 H 99.55670900217154 218.0117128221112 110.24737585471561 H 0.0 **** 0.06
28380 H 98.7206493491984 216.95004769471996 109.08832181065898 H 0.0 **** 0.06
28381 C 149.2083444722801 82.56639567169972 92.15279328373708 C 0.0 **** -0.24
28382 H 148.78466124341702 82.3458275321511 93.13298295645498 H 0.0 **** 0.06
28383 H 148.6497687423814 83.3800807854449 91.69057660823952 H 0.0 **** 0.06
28384 H 149.14777189849536 81.67822224055519 91.5230945480618 H 0.0 **** 0.06
28385 H 150.25171446636125 82.8600082078174 92.26728040756635 H 0.0 **** 0.06
28386 C 17.314298729107293 151.1481588124812 50.72778178259961 C 0.0 **** -0.24
28387 H 18.265988038875946 151.55968721191527 50.3893022143498 H 0.0 **** 0.06
28388 H 17.37154663742598 150.92968053129502 51.793279069828145 H 0.0 **** 0.06
28389 H 17.100148337609255 150.2302958048465 50.179206637851934 H 0.0 **** 0.06
28390 H 16.52110137007088 151.8730628932024 50.54642967504658 H 0.0 **** 0.06
28391 C 68.95377548186511 209.53281374049874 228.15936840432207 C 0.0 **** -0.24
28392 H 68.62144433472938 208.94680844859863 229.01639487875553 H 0.0 **** 0.06
28393 H 69.94672784059284 209.19996682486072 227.85517253891155 H 0.0 **** 0.06
28394 H 68.99221228203893 210.58748107884423 228.43381329275365 H 0.0 **** 0.06
28395 H 68.25505345667327 209.39718007172385 227.33345459847288 H 0.0 **** 0.06
28396 C 240.56105410789763 61.28703464453707 32.45288531459806 C 0.0 **** -0.24
28397 H 240.0986108773618 62.021410542031305 33.11379142505386 H 0.0 **** 0.06
28398 H 241.2077432779099 60.63022932182008 33.035305662299606 H 0.0 **** 0.06
28399 H 241.15244280210726 61.80281046869317 31.695967692695262 H 0.0 **** 0.06
28400 H 239.78425360309717 60.69624964888632 31.967515730673867 H 0.0 **** 0.06
28401 C 179.56101647052736 88.76156911790505 65.63461285523121 C 0.0 **** -0.24
28402 H 179.51258704561286 89.48147018237299 64.81850893851421 H 0.0 **** 0.06
28403 H 179.05975792656497 87.84030608640339 65.33629946891205 H 0.0 **** 0.06
28404 H 179.0672443858386 89.17574328706061 66.5133531180613 H 0.0 **** 0.06
28405 H 180.6032574244469 88.54927708083707 65.86979669786584 H 0.0 **** 0.06
28406 C 0.3049847249337603 36.51835402921233 119.06378012267552 C 0.0 **** -0.24
28407 H 0.9105512640620788 35.83858454080857 118.46437360101277 H 0.0 **** 0.06
28408 H -0.7298028152568179 36.480674046523035 118.7221669753373 H 0.0 **** 0.06
28409 H 0.6864750617325512 37.53441394877174 118.95805906772927 H 0.0 **** 0.06
28410 H 0.3536642371479388 36.22011341412818 120.11150213674841 H 0.0 **** 0.06
28411 C 6.867132971378709 235.11237767715602 241.73978119306366 C 0.0 **** -0.24
28412 H 7.267231218080752 234.2793903113608 242.31712511342909 H 0.0 **** 0.06
28413 H 6.077110283831729 235.6016363588405 242.30850138209584 H 0.0 **** 0.06
28414 H 6.46096178653616 234.74056089217362 240.7993016279578 H 0.0 **** 0.06
28415 H 7.663936965443867 235.82725457107742 241.5344229919157 H 0.0 **** 0.06
28416 C 15.39938276792239 115.70698994175004 20.96816393880914 C 0.0 **** -0.24
28417 H 16.199664271730597 115.05026871010881 21.309176118721794 H 0.0 **** 0.06
28418 H 15.814711691446945 116.68097330282464 20.710515222415566 H 0.0 **** 0.06
28419 H 14.662579861462433 115.82291419252294 21.762387209986656 H 0.0 **** 0.06
28420 H 14.921799586462697 115.27129805196085 20.09010445404013 H 0.0 **** 0.06
28421 C 228.28807724724612 183.43592997914806 75.08374070029308 C 0.0 **** -0.24
28422 H 227.52430853259833 182.97255817902004 74.45956324952064 H 0.0 **** 0.06
28423 H 228.4273883179934 182.8431585420335 75.98786017197907 H 0.0 **** 0.06
28424 H 227.97401511887796 184.4438442167475 75.3543667059381 H 0.0 **** 0.06
28425 H 229.22751227154143 183.48419670831635 74.5320952185449 H 0.0 **** 0.06
28426 C 102.55774111563855 100.78585760535654 224.15134701388604 C 0.0 **** -0.24
28427 H 101.91008908351276 101.6181069078182 223.87444537186389 H 0.0 **** 0.06
28428 H 103.5654229302159 100.97064323498432 223.77860956662352 H 0.0 **** 0.06
28429 H 102.17131872831794 99.86491974266443 223.71574541623244 H 0.0 **** 0.06
28430 H 102.58249557820906 100.69120544120074 225.23706601802104 H 0.0 **** 0.06
28431 C 173.71129581526804 198.13685656168462 169.03034524152378 C 0.0 **** -0.24
28432 H 174.5587775249394 197.52937448802754 168.71513604663656 H 0.0 **** 0.06
28433 H 172.7979323492216 197.54520196981343 168.9709769921042 H 0.0 **** 0.06
28434 H 173.6242012131133 199.00568971261816 168.37738271417587 H 0.0 **** 0.06
28435 H 173.86464374084468 198.46872485607452 170.05724222691526 H 0.0 **** 0.06
28436 C 172.576711627147 160.2367292129687 9.126463945580184 C 0.0 **** -0.24
28437 H 172.96110680405673 161.25385090599352 9.06067364075679 H 0.0 **** 0.06
28438 H 172.88480376197373 159.67382748388172 8.244957589385791 H 0.0 **** 0.06
28439 H 171.48827276862855 160.2621848398949 9.180235989459646 H 0.0 **** 0.06
28440 H 172.97309471309046 159.7562206184049 10.021046815175765 H 0.0 **** 0.06
28441 C 66.66831114362162 227.81121244324618 39.10202192325923 C 0.0 **** -0.24
28442 H 65.96103089439697 227.09784311362864 39.52524812662992 H 0.0 **** 0.06
28443 H 67.68039358690183 227.414350242088 39.188405380832336 H 0.0 **** 0.06
28444 H 66.59942367370624 228.754189469116 39.64361716528114 H 0.0 **** 0.06
28445 H 66.43077500743507 227.97790141875504 38.051043357850205 H 0.0 **** 0.06
28446 C 83.63051501501951 123.33513819544811 38.53276635866257 C 0.0 **** -0.24
28447 H 83.44781363571366 124.07843344341214 39.30871864335049 H 0.0 **** 0.06
28448 H 84.69717939888318 123.11594318387455 38.483886821188094 H 0.0 **** 0.06
28449 H 83.29515084124895 123.72398441047292 37.570864560618915 H 0.0 **** 0.06
28450 H 83.08191618423226 122.42219174403289 38.7675954094928 H 0.0 **** 0.06
28451 C 70.35777487005561 183.0370404902211 241.06077550971924 C 0.0 **** -0.24
28452 H 69.43840570556114 182.61125105911424 240.65796379748082 H 0.0 **** 0.06
28453 H 71.2005977779186 182.3972456894855 240.7967646377483 H 0.0 **** 0.06
28454 H 70.2806645874052 183.10720877317317 242.1461256802878 H 0.0 **** 0.06
28455 H 70.51051783525898 184.03148015956273 240.6427086620285 H 0.0 **** 0.06
28456 C 188.86348621269687 224.8028513639132 131.89703363419449 C 0.0 **** -0.24
28457 H 188.49593193956332 225.8260915936794 131.8263240313 H 0.0 **** 0.06
28458 H 189.78039793114635 224.7857830241765 132.48759028490034 H 0.0 **** 0.06
28459 H 189.06728467160906 224.41947145947535 130.89743991564336 H 0.0 **** 0.06
28460 H 188.1103274924228 224.1788077206353 132.37834023572003 H 0.0 **** 0.06
28461 C 180.4240176070316 130.73737533541566 83.25344122183506 C 0.0 **** -0.24
28462 H 179.39996117770187 131.1098562945315 83.24720202609262 H 0.0 **** 0.06
28463 H 180.82809616612943 130.8018706974418 84.2636523057547 H 0.0 **** 0.06
28464 H 181.03268268898586 131.33905555442175 82.57881592113938 H 0.0 **** 0.06
28465 H 180.43467721331183 129.69884081265457 82.92334732265613 H 0.0 **** 0.06
28466 C 210.3068902003946 188.39584282476812 220.60787883663065 C 0.0 **** -0.24
28467 H 209.99090785276175 187.77722257052523 219.76766594105845 H 0.0 **** 0.06
28468 H 210.00603732647252 187.92017229509705 221.54159274855394 H 0.0 **** 0.06
28469 H 209.83875312321814 189.3771613892506 220.53152361596176 H 0.0 **** 0.06
28470 H 211.39095980769304 188.5066417731724 220.58887236127242 H 0.0 **** 0.06
28471 C 109.31728318908071 210.11135012535578 139.0849552002676 C 0.0 **** -0.24
28472 H 108.8598350806985 209.63628018423447 138.2176130879713 H 0.0 **** 0.06
28473 H 110.14963402779566 210.73722702355312 138.7605160301848 H 0.0 **** 0.06
28474 H 109.6841304750524 209.34433569479035 139.76761288094764 H 0.0 **** 0.06
28475 H 108.57696932511075 210.7272067492574 139.5949812432398 H 0.0 **** 0.06
28476 C 170.15682469519953 104.18096027457798 226.4527158535586 C 0.0 **** -0.24
28477 H 170.0173879698933 105.12801572893383 226.975164843238 H 0.0 **** 0.06
28478 H 170.57418369676984 104.37018377174263 225.46384452794237 H 0.0 **** 0.06
28479 H 169.19632990178428 103.67672002449135 226.35239098575033 H 0.0 **** 0.06
28480 H 170.84068080800088 103.55132591826134 227.02071668978618 H 0.0 **** 0.06
28481 C 126.63689847900747 82.85501150865102 243.39543030502196 C 0.0 **** -0.24
28482 H 127.1902536447794 81.97004492566163 243.08016409534085 H 0.0 **** 0.06
28483 H 126.75844307092677 82.99571361676087 244.47006345670678 H 0.0 **** 0.06
28484 H 125.57997603473223 82.7238766796844 243.16357006291648 H 0.0 **** 0.06
28485 H 127.01950741486985 83.72893589629643 242.86861712022542 H 0.0 **** 0.06
28486 C 221.94777441462077 242.60815738079756 149.04415362173484 C 0.0 **** -0.24
28487 H 221.30143090794587 243.47902014985047 148.93287612080047 H 0.0 **** 0.06
28488 H 222.90998523054247 242.919765955585 149.44952259294902 H 0.0 **** 0.06
28489 H 222.09620486899237 242.14008672801398 148.07111311302677 H 0.0 **** 0.06
28490 H 221.4802852571767 241.89464846247708 149.72296175612124 H 0.0 **** 0.06
28491 C 7.240810761069923 130.43860949928876 173.28094527210115 C 0.0 **** -0.24
28492 H 7.624243363413697 130.29848185048027 172.27048090034916 H 0.0 **** 0.06
28493 H 6.158397672989437 130.30469752468923 173.27950548599102 H 0.0 **** 0.06
28494 H 7.4826551006469515 131.44413442169795 173.62443982748064 H 0.0 **** 0.06
28495 H 7.6970819037973826 129.70678475781304 173.94708846634742 H 0.0 **** 0.06
28496 C 30.15272708322442 93.55528890235726 39.87445733365615 C 0.0 **** -0.24
28497 H 31.053167195063523 93.06593089694795 39.50287434309425 H 0.0 **** 0.06
28498 H 30.25942514822725 93.74916452318425 40.94185947799551 H 0.0 **** 0.06
28499 H 29.292799013731482 92.9068883895302 39.70668350142388 H 0.0 **** 0.06
28500 H 30.006330966580848 94.49711896467716 39.346060819977964 H 0.0 **** 0.06
28501 C 247.6896337445077 153.6733205026753 217.66580730637955 C 0.0 **** -0.24
28502 H 248.640880281114 153.9121709649954 217.19072621055096 H 0.0 **** 0.06
28503 H 247.85229734644065 152.9454121559548 218.45991973479485 H 0.0 **** 0.06
28504 H 247.0078517717763 153.2567434321933 216.9246632915434 H 0.0 **** 0.06
28505 H 247.2569433187372 154.58099432084245 218.08719407615007 H 0.0 **** 0.06
28506 C 64.78781948684636 79.39426310390289 241.3937730894982 C 0.0 **** -0.24
28507 H 64.70811191011691 78.7212499231002 240.5397634087027 H 0.0 **** 0.06
28508 H 63.99416888957356 79.17140959697028 242.10657082259326 H 0.0 **** 0.06
28509 H 64.69261482107831 80.42554352720842 241.05343159567315 H 0.0 **** 0.06
28510 H 65.75681482284526 79.25851151546388 241.8740231423916 H 0.0 **** 0.06
28511 C 167.4685778552048 148.75791700274365 222.2689008930272 C 0.0 **** -0.24
28512 H 168.2200100976264 148.10866916928154 221.82024022093304 H 0.0 **** 0.06
28513 H 167.06260655348328 149.42339002462725 221.50691301239686 H 0.0 **** 0.06
28514 H 167.92789735962353 149.35026493408066 223.06118499888274 H 0.0 **** 0.06
28515 H 166.6662156671646 148.1507166395499 222.6867479908687 H 0.0 **** 0.06
28516 C 46.84944759782283 152.9396331914871 59.211196872079626 C 0.0 **** -0.24
28517 H 47.55730689113736 152.51233945475897 59.92064161363149 H 0.0 **** 0.06
28518 H 46.120537626164406 152.1815167491759 58.92456769844134 H 0.0 **** 0.06
28519 H 47.38434075331648 153.2827212421766 58.32620395667607 H 0.0 **** 0.06
28520 H 46.33454794276665 153.78141696122464 59.674636191871684 H 0.0 **** 0.06
28521 C 58.0463969701386 74.6239900449001 230.3307964492675 C 0.0 **** -0.24
28522 H 58.86924974300152 73.92649177579631 230.17150094950014 H 0.0 **** 0.06
28523 H 57.864023451561735 74.73329201705593 231.3994416377949 H 0.0 **** 0.06
28524 H 57.14793455208539 74.24166741436082 229.8448877414765 H 0.0 **** 0.06
28525 H 58.30519227249519 75.59375520233874 229.90517090425712 H 0.0 **** 0.06
28526 C 199.07398169345092 72.52313575117947 200.86846973194582 C 0.0 **** -0.24
28527 H 198.77558790202207 72.88610793091081 201.8514269539158 H 0.0 **** 0.06
28528 H 198.34628400925791 72.8505363947946 200.12405620765722 H 0.0 **** 0.06
28529 H 199.11644941584356 71.434017062234 200.87976322902745 H 0.0 **** 0.06
28530 H 200.05660496652337 72.92260848067949 200.616518118409 H 0.0 **** 0.06
28531 C 182.76551202994239 58.802326561341204 58.707739298473825 C 0.0 **** -0.24
28532 H 183.58072359182103 58.10116334048138 58.88844575510666 H 0.0 **** 0.06
28533 H 182.27996470990612 59.044804544594854 59.65267833907615 H 0.0 **** 0.06
28534 H 182.04128405558612 58.349889430024035 58.03117737143876 H 0.0 **** 0.06
28535 H 183.16334363350097 59.71289068648949 58.25875314406099 H 0.0 **** 0.06
28536 C 231.02911484904166 211.0429779028915 111.68392517227608 C 0.0 **** -0.24
28537 H 231.21024905405056 210.07743616795938 112.15510997373724 H 0.0 **** 0.06
28538 H 230.51416013627045 211.6982150976068 112.38626727449531 H 0.0 **** 0.06
28539 H 230.41176926406325 210.90473397805235 110.7963928554397 H 0.0 **** 0.06
28540 H 231.9802809417824 211.49152636794747 111.39793058543196 H 0.0 **** 0.06
28541 C 8.849786043196318 31.972363736334813 13.641342558708658 C 0.0 **** -0.24
28542 H 8.00489106959958 31.46615899410196 13.175214030919818 H 0.0 **** 0.06
28543 H 9.653133132587001 31.25518584541797 13.813406231872165 H 0.0 **** 0.06
28544 H 8.53518388029616 32.40102300376569 14.59325657163626 H 0.0 **** 0.06
28545 H 9.205565118761456 32.766467848362055 12.985067863551023 H 0.0 **** 0.06
28546 C 218.7435427168632 113.55058834514455 52.752640457724226 C 0.0 **** -0.24
28547 H 219.82724148540024 113.46223263779984 52.822988221813205 H 0.0 **** 0.06
28548 H 218.3656596486857 114.0920417354491 53.619818744255724 H 0.0 **** 0.06
28549 H 218.2988272013095 112.55595267367642 52.72385576812161 H 0.0 **** 0.06
28550 H 218.48146436062146 114.09128508094145 51.84274345674049 H 0.0 **** 0.06
28551 C 137.18615316757675 222.45230026194398 155.52736848682696 C 0.0 **** -0.24
28552 H 137.82618520835965 222.3493073535546 154.65160367366093 H 0.0 **** 0.06
28553 H 137.75356075471305 222.90359547597217 156.34104091772855 H 0.0 **** 0.06
28554 H 136.82930264399982 221.4688772578275 155.83458416851667 H 0.0 **** 0.06
28555 H 136.33477906396266 223.08708552939427 155.28276602509905 H 0.0 **** 0.06
28556 C 47.85600555939925 208.76026675802268 13.20352048921444 C 0.0 **** -0.24
28557 H 47.5978285194858 207.87590228937327 13.78591354385992 H 0.0 **** 0.06
28558 H 48.74396454499308 209.22954732219927 13.628973396893443 H 0.0 **** 0.06
28559 H 47.0255735105561 209.46590978423464 13.22856248568607 H 0.0 **** 0.06
28560 H 48.055693756854396 208.4709102549009 12.172253793678337 H 0.0 **** 0.06
28561 C 88.6274139821501 196.59974577237173 37.4017298618577 C 0.0 **** -0.24
28562 H 89.6199476562467 196.45962745970135 37.83244247415696 H 0.0 **** 0.06
28563 H 88.0728973173793 197.32463075899142 37.99777062789644 H 0.0 **** 0.06
28564 H 88.09632041825338 195.6482461626677 37.39752490989996 H 0.0 **** 0.06
28565 H 88.72398692630165 196.96608962007193 36.37997137026805 H 0.0 **** 0.06
28566 C 224.306117625294 175.47539840269417 208.62402381312538 C 0.0 **** -0.24
28567 H 223.2213571464406 175.58268757459535 208.5982495286557 H 0.0 **** 0.06
28568 H 224.5850673320918 174.80627019152112 209.43735465412377 H 0.0 **** 0.06
28569 H 224.763590119301 176.45195381370212 208.7832752415625 H 0.0 **** 0.06
28570 H 224.65254043213653 175.06175859763448 207.67680107168 H 0.0 **** 0.06
28571 C 61.494320091738416 37.44040818226776 147.9806394384552 C 0.0 **** -0.24
28572 H 60.549844301054236 36.90124851200446 148.06132345718584 H 0.0 **** 0.06
28573 H 62.07837499059198 37.28701295144853 148.8877377469392 H 0.0 **** 0.06
28574 H 61.295296068275434 38.503752215248966 147.85108456646805 H 0.0 **** 0.06
28575 H 62.05125707408456 37.06801425446699 147.12095081603803 H 0.0 **** 0.06
28576 C 246.91534406637308 176.4597348861703 139.71344327750225 C 0.0 **** -0.24
28577 H 247.03945786447417 175.41743316807276 139.4203503592814 H 0.0 **** 0.06
28578 H 247.51587687225944 176.66038446255723 140.60208588833194 H 0.0 **** 0.06
28579 H 245.8653692493805 176.65238995805677 139.93332841606733 H 0.0 **** 0.06
28580 H 247.24166843563577 177.10723291725816 138.90060857189317 H 0.0 **** 0.06
28581 C 68.64993414741261 48.53965664300203 178.2347164964214 C 0.0 **** -0.24
28582 H 67.96596585724066 48.352615711261706 177.40681031928284 H 0.0 **** 0.06
28583 H 69.12749164861756 49.51096224533683 178.09884211681825 H 0.0 **** 0.06
28584 H 69.41081797908313 47.76058939261134 178.26057318008114 H 0.0 **** 0.06
28585 H 68.0932893237626 48.536227072483214 179.17224268506618 H 0.0 **** 0.06
28586 C 200.26376592265842 86.99270325259957 80.422216990299 C 0.0 **** -0.24
28587 H 200.6433389135301 86.15028089057589 81.00047599621996 H 0.0 **** 0.06
28588 H 200.5426276086263 87.92545254891377 80.91271111052708 H 0.0 **** 0.06
28589 H 199.1781753848184 86.92725876651997 80.35534573893719 H 0.0 **** 0.06
28590 H 200.69168416092475 86.96681826029712 79.41969191591292 H 0.0 **** 0.06
28591 C 153.55481840766325 102.27858788489095 204.52765169729085 C 0.0 **** -0.24
28592 H 154.12478686266388 101.90200286454868 205.37747418426568 H 0.0 **** 0.06
28593 H 153.95539829719112 101.85711259634058 203.60639337855667 H 0.0 **** 0.06
28594 H 153.6288748244133 103.3653907589053 204.49401056388322 H 0.0 **** 0.06
28595 H 152.50988151523964 101.9886103913712 204.63624502095473 H 0.0 **** 0.06
28596 C 130.43544044372047 33.317348141753655 22.381631120476527 C 0.0 **** -0.24
28597 H 131.29661740139468 33.956819959109254 22.57426187370656 H 0.0 **** 0.06
28598 H 129.71623609007386 33.85238621396789 21.761966757931773 H 0.0 **** 0.06
28599 H 129.9678335071152 33.04349352361362 23.327569265079134 H 0.0 **** 0.06
28600 H 130.76115887533751 32.415721994208894 21.863751449275128 H 0.0 **** 0.06
28601 C 73.9433100604279 69.63235273203188 111.4295750143277 C 0.0 **** -0.24
28602 H 73.99600227697829 70.70849752485216 111.59751992693418 H 0.0 **** 0.06
28603 H 74.63373994730674 69.12553894531558 112.10329522303661 H 0.0 **** 0.06
28604 H 74.21608457712426 69.4124923843747 110.39674004534297 H 0.0 **** 0.06
28605 H 72.92794218923626 69.28500708051328 111.61895465306523 H 0.0 **** 0.06
28606 C 8.133723642650807 20.37879596147883 3.530383126793467 C 0.0 **** -0.24
28607 H 8.838877705507798 20.85926442792787 2.851273871283908 H 0.0 **** 0.06
28608 H 8.228410707573332 20.81908525217409 4.522883135402353 H 0.0 **** 0.06
28609 H 8.351612893409765 19.31179999223278 3.583027700646525 H 0.0 **** 0.06
28610 H 7.118250149169768 20.524848768841238 3.1619245371577165 H 0.0 **** 0.06
28611 C 123.89025359416226 82.66553104916093 24.758609816145608 C 0.0 **** -0.24
28612 H 124.82792664079798 82.38640329154717 25.239389935791195 H 0.0 **** 0.06
28613 H 123.7680623472809 83.74791941658285 24.802133293760747 H 0.0 **** 0.06
28614 H 123.05990580085887 82.18449592496879 25.27676069443821 H 0.0 **** 0.06
28615 H 123.90502259048267 82.34172873293201 23.717737821380226 H 0.0 **** 0.06
28616 C 61.199803137255174 14.943137844655979 209.42044991367138 C 0.0 **** -0.24
28617 H 61.58670497428639 14.38244306302957 210.27203485410087 H 0.0 **** 0.06
28618 H 60.56247025989177 15.752027708803297 209.7778314482877 H 0.0 **** 0.06
28619 H 60.62006381946844 14.277503985785387 208.7807097620363 H 0.0 **** 0.06
28620 H 62.03165294193275 15.359454295411723 208.85260919588376 H 0.0 **** 0.06
28621 C 111.68574767285614 231.5799051794069 229.85271158160307 C 0.0 **** -0.24
28622 H 111.84010971179504 230.6445885329914 229.31443869202667 H 0.0 **** 0.06
28623 H 112.54542570549492 231.77604341792292 230.49336830655955 H 0.0 **** 0.06
28624 H 110.78623652642216 231.50353545154707 230.46315725996777 H 0.0 **** 0.06
28625 H 111.57191159422044 232.3955997038187 229.13714370849925 H 0.0 **** 0.06
28626 C 134.71569521442828 188.78192939667392 169.83497690364027 C 0.0 **** -0.24
28627 H 135.31616809854316 189.69159163225254 169.7986105173128 H 0.0 **** 0.06
28628 H 134.64374722626667 188.35489862619053 168.83403245465345 H 0.0 **** 0.06
28629 H 133.7175263160429 189.01958036528677 170.20203606930963 H 0.0 **** 0.06
28630 H 135.1872696107005 188.06190742390532 170.50413048931344 H 0.0 **** 0.06
28631 C 164.81607475267882 228.0619656980186 7.750602892282203 C 0.0 **** -0.24
28632 H 165.01243473575596 228.84862429858032 8.478111351471085 H 0.0 **** 0.06
28633 H 164.470790913177 228.50853869615446 6.8174832810755674 H 0.0 **** 0.06
28634 H 164.0479726075347 227.39169592810413 8.13825494372324 H 0.0 **** 0.06
28635 H 165.73102651915593 227.49822850574418 7.56751489273681 H 0.0 **** 0.06
28636 C 235.93027241076902 0.6500732870713932 140.54229960367624 C 0.0 **** -0.24
28637 H 236.3632103990239 0.9099268725631191 141.5083753683215 H 0.0 **** 0.06
28638 H 235.43685307057473 -0.31964165318936466 140.61438196770433 H 0.0 **** 0.06
28639 H 236.7194333352238 0.6012363219100791 139.7912486292057 H 0.0 **** 0.06
28640 H 235.2015928382536 1.408771607001853 140.25519244947358 H 0.0 **** 0.06
28641 C 198.5265613904175 119.44139070250606 82.00928531796077 C 0.0 **** -0.24
28642 H 199.03662833120228 118.85661015581044 82.77505029585282 H 0.0 **** 0.06
28643 H 198.44991240990484 120.47943722633724 82.33645185062423 H 0.0 **** 0.06
28644 H 197.52733880968927 119.03695466577207 81.84915945794691 H 0.0 **** 0.06
28645 H 199.0919662100404 119.39450855850882 81.07893859926773 H 0.0 **** 0.06
28646 C 160.34710706745972 237.5527633049823 192.75511351856517 C 0.0 **** -0.24
28647 H 160.8083368715267 238.3956927426207 192.24014400150253 H 0.0 **** 0.06
28648 H 161.0589312631147 237.12385989886505 193.4590834990882 H 0.0 **** 0.06
28649 H 160.05554383828218 236.79737160326943 192.02554664199147 H 0.0 **** 0.06
28650 H 159.4639462562781 237.89657468789943 193.295200827126 H 0.0 **** 0.06
28651 C 139.16892448567563 167.89753661508345 198.2885755428776 C 0.0 **** -0.24
28652 H 138.0794756718302 167.9320558496426 198.30254963647138 H 0.0 **** 0.06
28653 H 139.52292902487068 168.0213637163691 197.2655793575359 H 0.0 **** 0.06
28654 H 139.50647413852693 166.9359693998593 198.67606270048842 H 0.0 **** 0.06
28655 H 139.56532998988314 168.69987843821784 198.9111153789338 H 0.0 **** 0.06
28656 C 77.9113816251375 50.49553918883018 10.830798004462295 C 0.0 **** -0.24
28657 H 78.61965053572251 50.680150810622735 11.637997645575226 H 0.0 **** 0.06
28658 H 76.89418543834381 50.5505140602601 11.219752061946025 H 0.0 **** 0.06
28659 H 78.08730115823187 49.5046570672462 10.41198359567349 H 0.0 **** 0.06
28660 H 78.04342630373475 51.24810768905277 10.052786157464212 H 0.0 **** 0.06
28661 C 231.01464899396694 198.10312459059543 214.56399664550347 C 0.0 **** -0.24
28662 H 230.80127878875118 198.80280294216942 215.37248655580112 H 0.0 **** 0.06
28663 H 231.20198623426526 198.65756614469785 213.643851058699 H 0.0 **** 0.06
28664 H 230.1617404225937 197.44034219379148 214.42211281850575 H 0.0 **** 0.06
28665 H 231.89465250873366 197.51263661757045 214.81860877185545 H 0.0 **** 0.06
28666 C 114.42008211178316 216.70406998131264 137.34822873670723 C 0.0 **** -0.24
28667 H 114.02196672992909 217.64686604672517 137.7229676962237 H 0.0 **** 0.06
28668 H 113.81006053925358 216.35937285744103 136.51278924118589 H 0.0 **** 0.06
28669 H 114.40046774458506 215.95933285345245 138.14389352543432 H 0.0 **** 0.06
28670 H 115.44580640031529 216.85136028312945 137.01258189253969 H 0.0 **** 0.06
28671 C 200.64141192581073 48.978925609371444 90.88038066061395 C 0.0 **** -0.24
28672 H 200.2039398351586 48.3912808721163 90.07287622827619 H 0.0 **** 0.06
28673 H 201.7263634402831 48.87845575385545 90.85501166290362 H 0.0 **** 0.06
28674 H 200.26353458790206 48.61883502115174 91.83708126750287 H 0.0 **** 0.06
28675 H 200.37074551429183 50.026715323629546 90.753439851568 H 0.0 **** 0.06
28676 C 174.2427440518448 149.87395024500125 218.77488464459756 C 0.0 **** -0.24
28677 H 174.1132070776743 150.3781264732384 217.81772631770326 H 0.0 **** 0.06
28678 H 173.40930036758033 150.12352401435783 219.43218528829675 H 0.0 **** 0.06
28679 H 175.17709424076435 150.19883408952555 219.2330645054001 H 0.0 **** 0.06
28680 H 174.2703006869774 148.79622645227357 218.616699248936 H 0.0 **** 0.06
28681 C 171.070757037529 8.670555854738382 40.37690391007237 C 0.0 **** -0.24
28682 H 170.3181626578818 7.9409089112719755 40.078751931160994 H 0.0 **** 0.06
28683 H 171.98612368634076 8.501488951655915 39.807969933527374 H 0.0 **** 0.06
28684 H 171.28026406380283 8.562354544378906 41.44119938295738 H 0.0 **** 0.06
28685 H 170.70026907405077 9.676155206330165 40.17993900430564 H 0.0 **** 0.06
28686 C 193.0027143335908 138.7023076666214 28.76476427252149 C 0.0 **** -0.24
28687 H 192.1169352545746 139.1008491070775 29.2591969884015 H 0.0 **** 0.06
28688 H 193.89643982675318 139.06640002652586 29.272597981628877 H 0.0 **** 0.06
28689 H 193.01641403793417 139.0293225417693 27.725338876917334 H 0.0 **** 0.06
28690 H 192.981566512785 137.61267843268942 28.80386008603145 H 0.0 **** 0.06
28691 C 132.07727419446348 213.85912326986346 57.67444137406912 C 0.0 **** -0.24
28692 H 131.71769865985084 212.85845954789352 57.914208176553075 H 0.0 **** 0.06
28693 H 132.7030242688746 213.81675000122374 56.7828882793344 H 0.0 **** 0.06
28694 H 132.66086237675 214.24588398659424 58.510643839453394 H 0.0 **** 0.06
28695 H 131.22697109822596 214.51615243664125 57.49040091065797 H 0.0 **** 0.06
28696 C 25.387558030060035 123.11674749164081 178.30920514787516 C 0.0 **** -0.24
28697 H 25.148623750386236 122.36978722580108 179.06573560545576 H 0.0 **** 0.06
28698 H 25.995397275651698 122.65975482642153 177.52785712589605 H 0.0 **** 0.06
28699 H 25.94064218046529 123.93533997562886 178.76800883262925 H 0.0 **** 0.06
28700 H 24.464938306967298 123.50060794899977 177.87462539869776 H 0.0 **** 0.06
28701 C 224.02482174166906 64.63488788553326 51.09406982861876 C 0.0 **** -0.24
28702 H 224.35556869204356 64.24675826045166 52.057152074730965 H 0.0 **** 0.06
28703 H 222.9808323444096 64.36425731790348 50.933365715797976 H 0.0 **** 0.06
28704 H 224.63772282234055 64.20861210715245 50.300698047910686 H 0.0 **** 0.06
28705 H 224.12444482140074 65.71992585122624 51.08740529562195 H 0.0 **** 0.06
28706 C 190.87872687554318 70.17025705613719 226.61127289230842 C 0.0 **** -0.24
28707 H 191.45882876420166 70.9300130820919 226.08824598947902 H 0.0 **** 0.06
28708 H 190.7656451182482 70.45514916175918 227.65662525387822 H 0.0 **** 0.06
28709 H 191.39640770503632 69.21180077048689 226.54861748366818 H 0.0 **** 0.06
28710 H 189.89504162021888 70.08210656877938 226.14933741434768 H 0.0 **** 0.06
28711 C 15.516532893040662 158.40637866262446 68.71857668479151 C 0.0 **** -0.24
28712 H 15.70502413320881 158.20963722238878 67.66300791364336 H 0.0 **** 0.06
28713 H 14.516901005406822 158.05721351114968 68.98005396750423 H 0.0 **** 0.06
28714 H 15.588142723282061 159.47751179412046 68.90600776768306 H 0.0 **** 0.06
28715 H 16.255103774166855 157.8806414053278 69.3232831868068 H 0.0 **** 0.06
28716 C 35.381077117348894 240.32121139592084 8.030449423058116 C 0.0 **** -0.24
28717 H 35.06866066047664 241.32772031616622 8.30503693211611 H 0.0 **** 0.06
28718 H 36.377102803419206 240.35811782712852 7.588147121000219 H 0.0 **** 0.06
28719 H 34.67783475032829 239.90671604550977 7.307823412543456 H 0.0 **** 0.06
28720 H 35.40063748877853 239.69139623601907 8.920350447758182 H 0.0 **** 0.06
28721 C 14.19046758837655 247.92379810312687 114.45656995785728 C 0.0 **** -0.24
28722 H 13.636178583266215 248.8621429489647 114.46547025419224 H 0.0 **** 0.06
28723 H 14.647102557949395 247.7617974327696 115.43365842348058 H 0.0 **** 0.06
28724 H 14.96909072077824 247.96987194116562 113.69448807357756 H 0.0 **** 0.06
28725 H 13.510743154356902 247.10290288325118 114.23120295266813 H 0.0 **** 0.06
28726 C 65.93485340141766 115.57435770023423 189.42474473739975 C 0.0 **** -0.24
28727 H 65.65136377048796 114.54839188934397 189.66266356275048 H 0.0 **** 0.06
28728 H 66.89103987280436 115.57359125638396 188.90074147304688 H 0.0 **** 0.06
28729 H 66.0250373180329 116.1481920182095 190.34671360854128 H 0.0 **** 0.06
28730 H 65.17180535588207 116.0240285860142 188.78960747567027 H 0.0 **** 0.06
28731 C 98.03432534544453 88.77523494985516 184.83717910127842 C 0.0 **** -0.24
28732 H 98.26329052905706 89.82021508810917 184.62479021696453 H 0.0 **** 0.06
28733 H 97.14390541215909 88.7189263519999 185.463225626553 H 0.0 **** 0.06
28734 H 98.87570011746752 88.31841352027766 185.35975852965254 H 0.0 **** 0.06
28735 H 97.85658712934764 88.2461617910565 183.90166893326196 H 0.0 **** 0.06
28736 C 187.655309701744 87.51733181934335 222.20495899008404 C 0.0 **** -0.24
28737 H 187.95654156603717 88.3462054158858 222.84493436970644 H 0.0 **** 0.06
28738 H 188.13318290088696 87.61950127720462 221.23026048098416 H 0.0 **** 0.06
28739 H 186.5725144311968 87.52889817458711 222.08181603630754 H 0.0 **** 0.06
28740 H 187.95883696721614 86.57570583205941 222.66290469880408 H 0.0 **** 0.06
28741 C 156.32089186858798 49.44938358027794 228.61755751346016 C 0.0 **** -0.24
28742 H 156.88484101044233 48.53975616950707 228.8201380959952 H 0.0 **** 0.06
28743 H 157.01004441437158 50.28835438091512 228.51653107036972 H 0.0 **** 0.06
28744 H 155.63196226368106 49.64066304734419 229.44022496325613 H 0.0 **** 0.06
28745 H 155.75681249946817 49.32894091843262 227.69235666753497 H 0.0 **** 0.06
28746 C 76.18313112016071 93.88014722191102 24.117961959656313 C 0.0 **** -0.24
28747 H 75.48440698914882 94.66428467111311 24.409400834525115 H 0.0 **** 0.06
28748 H 77.20326693123442 94.2144493834821 24.30446008876298 H 0.0 **** 0.06
28749 H 76.05998042125188 93.66016762029878 23.057266218905355 H 0.0 **** 0.06
28750 H 75.98299017911248 92.98011775603922 24.70066956083741 H 0.0 **** 0.06
28751 C 66.12859528727495 64.9227081982321 102.7437406145626 C 0.0 **** -0.24
28752 H 66.14251582552419 63.83446454537673 102.69954193449567 H 0.0 **** 0.06
28753 H 65.23936985330599 65.29610383938609 102.23582783466 H 0.0 **** 0.06
28754 H 67.01979780132169 65.31731398449332 102.25509766971894 H 0.0 **** 0.06
28755 H 66.11451051395727 65.2438454656371 103.78545028977786 H 0.0 **** 0.06
28756 C 28.09277067666966 186.4754476541508 65.16377399114359 C 0.0 **** -0.24
28757 H 27.09554026290131 186.67691560627514 65.55602740813447 H 0.0 **** 0.06
28758 H 28.059554308973233 185.59313167594362 64.52459580247267 H 0.0 **** 0.06
28759 H 28.77959381661786 186.30051773555795 65.99184286889886 H 0.0 **** 0.06
28760 H 28.43403790072135 187.33244481793747 64.58361012962521 H 0.0 **** 0.06
28761 C 125.12436958891476 22.23370930231502 186.03234090124795 C 0.0 **** -0.24
28762 H 124.18162964138625 21.76443320418545 186.31642173389497 H 0.0 **** 0.06
28763 H 125.90978295682004 21.909778098614964 186.71460989364778 H 0.0 **** 0.06
28764 H 125.0209656029873 23.317670548042287 186.08341148147343 H 0.0 **** 0.06
28765 H 125.38278975083585 21.94077103428876 185.01397663672702 H 0.0 **** 0.06
28766 C 191.23429070615117 116.26031444750976 93.1754206297791 C 0.0 **** -0.24
28767 H 191.09204032627144 117.03179520340154 92.41843922641567 H 0.0 **** 0.06
28768 H 190.41085720942044 115.54726612708919 93.12710970768092 H 0.0 **** 0.06
28769 H 191.25919426370842 116.72085844589199 94.16276079515308 H 0.0 **** 0.06
28770 H 192.1755575344745 115.7419526509087 92.99219569630509 H 0.0 **** 0.06
28771 C 219.12938389227153 128.79742920364043 208.8020500804751 C 0.0 **** -0.24
28772 H 218.48368027360925 128.72319218168747 207.9269516449691 H 0.0 **** 0.06
28773 H 219.57531950823437 129.7919758480835 208.8399971533555 H 0.0 **** 0.06
28774 H 219.91775508543068 128.04743494799192 208.73726544908595 H 0.0 **** 0.06
28775 H 218.5396342975421 128.6287396799275 209.7029650749504 H 0.0 **** 0.06
28776 C 232.5360570458639 176.8578528481459 133.19702939568836 C 0.0 **** -0.24
28777 H 232.32359810806793 177.2224105670979 134.2024345110188 H 0.0 **** 0.06
28778 H 233.16701293601636 177.57930742317325 132.67658002906478 H 0.0 **** 0.06
28779 H 231.60129653772566 176.73153348968304 132.6515921649148 H 0.0 **** 0.06
28780 H 233.05293741137064 175.90090344269476 133.25976758223996 H 0.0 **** 0.06
28781 C 151.68562991364732 87.48055433438998 111.53992998857686 C 0.0 **** -0.24
28782 H 152.58157413591152 87.64600101743932 110.94035686620893 H 0.0 **** 0.06
28783 H 151.96085984416405 87.41155898618149 112.59198259599276 H 0.0 **** 0.06
28784 H 151.20611845433882 86.55416814352554 111.22633321104084 H 0.0 **** 0.06
28785 H 150.996403135903 88.31314180225792 111.39804225540874 H 0.0 **** 0.06
28786 C 2.475991870116303 91.67528945148055 165.71036920425308 C 0.0 **** -0.24
28787 H 3.037623591523868 90.80144278318389 166.0401939700654 H 0.0 **** 0.06
28788 H 2.77829506336451 92.54325465391511 166.29740392896562 H 0.0 **** 0.06
28789 H 1.4102969674018624 91.49587667234496 165.84840900589725 H 0.0 **** 0.06
28790 H 2.680074937790664 91.86067207853577 164.656241629737 H 0.0 **** 0.06
28791 C 2.0299063106711515 113.7471674795388 202.44307142548467 C 0.0 **** -0.24
28792 H 1.1377522938674645 114.06740228231226 202.98153540168056 H 0.0 **** 0.06
28793 H 2.8993262709978467 114.2753967669926 202.8338185516762 H 0.0 **** 0.06
28794 H 1.9144432484390848 113.97222531657457 201.38200128767897 H 0.0 **** 0.06
28795 H 2.1670125812520666 112.67373359707744 202.5732564425565 H 0.0 **** 0.06
28796 C 237.00517377438666 136.3734231081777 150.90704043051602 C 0.0 **** -0.24
28797 H 238.0615160056284 136.3759631451558 151.1748616447701 H 0.0 **** 0.06
28798 H 236.9063155763591 136.38499421018074 149.82208848463694 H 0.0 **** 0.06
28799 H 236.52299757272652 137.25667144630643 151.32630055943432 H 0.0 **** 0.06
28800 H 236.53117047068716 135.47662426933886 151.3069070167475 H 0.0 **** 0.06
28801 C 19.862072610493158 16.550593502390768 152.45109048253687 C 0.0 **** -0.24
28802 H 19.863017069066018 15.494822570014264 152.18077139011257 H 0.0 **** 0.06
28803 H 19.143285677180316 16.719600111258785 153.25456214092114 H 0.0 **** 0.06
28804 H 19.58422272735332 17.147850609057798 151.58280829489308 H 0.0 **** 0.06
28805 H 20.857282955845776 16.840812073731456 152.7877239884957 H 0.0 **** 0.06
28806 C 40.23052848942311 220.75375200656515 113.90879107627822 C 0.0 **** -0.24
28807 H 41.30124113199713 220.94492088969358 113.9840670313958 H 0.0 **** 0.06
28808 H 39.68570215269392 221.50839507583805 114.4773433466828 H 0.0 **** 0.06
28809 H 40.008056126662694 219.76544702242415 114.3097460170153 H 0.0 **** 0.06
28810 H 39.927836744944074 220.7980846629244 112.86256075112684 H 0.0 **** 0.06
28811 C 21.903053250986517 45.57952553189202 77.1999416414707 C 0.0 **** -0.24
28812 H 21.45987849239006 46.497652474325065 77.58482683744978 H 0.0 **** 0.06
28813 H 21.910157265413034 44.822508693142595 77.98423789243384 H 0.0 **** 0.06
28814 H 22.92495270490693 45.77759099657118 76.87648662587424 H 0.0 **** 0.06
28815 H 21.317657018289495 45.221504315135206 76.35264025777082 H 0.0 **** 0.06
28816 C 111.45476128966678 39.69188353795306 182.43050220389026 C 0.0 **** -0.24
28817 H 112.26827727937683 38.99790806894406 182.6402028118097 H 0.0 **** 0.06
28818 H 111.74079894607834 40.6936695805328 182.75100142878455 H 0.0 **** 0.06
28819 H 110.5611469671681 39.37844242920232 182.97066392739717 H 0.0 **** 0.06
28820 H 111.24882196604398 39.697514073133064 181.3601406475696 H 0.0 **** 0.06
28821 C 188.8219038928271 52.51376321416281 237.42650060670684 C 0.0 **** -0.24
28822 H 188.38383328109143 52.86193327000444 238.36135102810184 H 0.0 **** 0.06
28823 H 189.7610022612922 53.03706987311716 237.2487340270872 H 0.0 **** 0.06
28824 H 188.13289460303056 52.71468696829753 236.60555942619283 H 0.0 **** 0.06
28825 H 189.00875255109673 51.4413199018077 237.4895124996405 H 0.0 **** 0.06
28826 C 161.6297304492517 236.45234146379585 206.73283879053366 C 0.0 **** -0.24
28827 H 160.67599876976774 235.9610649105829 206.53508434694095 H 0.0 **** 0.06
28828 H 162.40880865521635 235.69857590512925 206.84607835567266 H 0.0 **** 0.06
28829 H 161.55332644657844 237.0372331023966 207.64963853528752 H 0.0 **** 0.06
28830 H 161.87865338803854 237.11038730597414 205.9006737809454 H 0.0 **** 0.06
28831 C 223.47938098008768 15.12018221234078 200.56165436881446 C 0.0 **** -0.24
28832 H 223.73436903259565 14.203693660825223 200.02935708430343 H 0.0 **** 0.06
28833 H 222.44371121710213 15.38756267823939 200.3490763616171 H 0.0 **** 0.06
28834 H 224.13758651063904 15.925805628888469 200.23442513511188 H 0.0 **** 0.06
28835 H 223.60224980229435 14.96403531903215 201.6329162225838 H 0.0 **** 0.06
28836 C 154.77736871672525 203.48322942503034 56.32538803858375 C 0.0 **** -0.24
28837 H 154.1322218866593 204.23258452448306 56.78298836891062 H 0.0 **** 0.06
28838 H 155.812936186579 203.6725436916897 56.60887471862708 H 0.0 **** 0.06
28839 H 154.68240205621927 203.53507165901965 55.240501274493596 H 0.0 **** 0.06
28840 H 154.48243480294727 202.4911427548966 56.668689078480924 H 0.0 **** 0.06
28841 C 81.85190700888364 63.560753108050676 5.241239655260969 C 0.0 **** -0.24
28842 H 82.66151458001667 64.28062987884678 5.358246397059943 H 0.0 **** 0.06
28843 H 81.80595741146556 62.919368890518314 6.12228193847244 H 0.0 **** 0.06
28844 H 82.03432525796421 62.95033484408802 4.3568366396514335 H 0.0 **** 0.06
28845 H 80.90729664865097 64.09099763604695 5.127751507682433 H 0.0 **** 0.06
28846 C 194.52201348773553 197.35277385302462 87.74855973970358 C 0.0 **** -0.24
28847 H 194.03554117186422 198.26726558314508 87.4077223292002 H 0.0 **** 0.06
28848 H 194.5670742148821 196.63798557636667 86.92741187784046 H 0.0 **** 0.06
28849 H 193.95151222669048 196.92465840561496 88.5734130927109 H 0.0 **** 0.06
28850 H 195.53219492045127 197.5836352966554 88.0866929025938 H 0.0 **** 0.06
28851 C 230.25142853220203 32.222813779807694 216.87344568732317 C 0.0 **** -0.24
28852 H 229.8371775092103 31.23695219892508 216.66490170688203 H 0.0 **** 0.06
28853 H 229.4776707676214 32.97823926545854 216.73667278733606 H 0.0 **** 0.06
28854 H 231.07854172230705 32.42116689293945 216.19161184773927 H 0.0 **** 0.06
28855 H 230.61351910806096 32.2546284782745 217.90130356361976 H 0.0 **** 0.06
28856 C 189.98718001268313 118.40064923856406 237.16522539946027 C 0.0 **** -0.24
28857 H 189.40469583723524 118.66825901341346 236.28304980873006 H 0.0 **** 0.06
28858 H 189.51261477722804 118.81636586992263 238.05388117378902 H 0.0 **** 0.06
28859 H 190.9963530085088 118.80162932518687 237.06950493999767 H 0.0 **** 0.06
28860 H 190.0343205067811 117.31479654817528 237.25271417543888 H 0.0 **** 0.06
28861 C 40.4481617498063 93.37042254226742 67.14286234221942 C 0.0 **** -0.24
28862 H 40.314299597205675 92.72406733022873 68.01075371853213 H 0.0 **** 0.06
28863 H 41.37690139827383 93.93214701597904 67.24815175535835 H 0.0 **** 0.06
28864 H 39.610338719934006 94.06340101132693 67.07312733923979 H 0.0 **** 0.06
28865 H 40.49204644456981 92.75997819904376 66.24026640959252 H 0.0 **** 0.06
28866 C 187.01702604378377 98.33657171303255 133.95267644341703 C 0.0 **** -0.24
28867 H 186.8112750189536 99.37876688383582 134.19773422276637 H 0.0 **** 0.06
28868 H 187.5781468201974 97.87589725165171 134.7659704173719 H 0.0 **** 0.06
28869 H 187.60145665666246 98.28800596405117 133.0335720960546 H 0.0 **** 0.06
28870 H 186.07586288368987 97.80367444552925 133.81305556851316 H 0.0 **** 0.06
28871 C 66.83237119253334 39.51662083489262 45.54816053001487 C 0.0 **** -0.24
28872 H 67.3066781615687 40.48183052063425 45.36574959847684 H 0.0 **** 0.06
28873 H 65.75509706925232 39.652958979096496 45.640864029911114 H 0.0 **** 0.06
28874 H 67.2256502903719 39.08757109339956 46.470319653801056 H 0.0 **** 0.06
28875 H 67.04538085362063 38.845723179745875 44.71634577735534 H 0.0 **** 0.06
28876 C 204.58400886201582 164.26289925040572 236.70826452676386 C 0.0 **** -0.24
28877 H 205.62828494416175 164.49816939638285 236.5055800911082 H 0.0 **** 0.06
28878 H 204.04816088096817 165.1772516913248 236.9615274659845 H 0.0 **** 0.06
28879 H 204.52480076159648 163.56406226338913 237.54298953582594 H 0.0 **** 0.06
28880 H 204.1354032412179 163.81060043089735 235.82448834920302 H 0.0 **** 0.06
28881 C 125.06119037104372 157.93763834424487 11.169944835266762 C 0.0 **** -0.24
28882 H 124.3755170023224 158.57896364033147 10.617649217642992 H 0.0 **** 0.06
28883 H 125.28747805530804 158.39258437115353 12.134889692380199 H 0.0 **** 0.06
28884 H 125.98342061789717 157.81564084532465 10.600793218376594 H 0.0 **** 0.06
28885 H 124.60024428150504 156.96274082848822 11.326364457335984 H 0.0 **** 0.06
28886 C 219.88751325231436 197.13728212502053 191.95606445544212 C 0.0 **** -0.24
28887 H 220.51659703596258 197.7654804595664 192.58809849856058 H 0.0 **** 0.06
28888 H 219.27623314790867 197.7685684131618 191.31126462297016 H 0.0 **** 0.06
28889 H 219.24127252513853 196.52354439160342 192.58289734990825 H 0.0 **** 0.06
28890 H 220.51805200654286 196.49296787917484 191.34323446041626 H 0.0 **** 0.06
28891 C 220.7439684945772 11.090018864031464 105.20490658780162 C 0.0 **** -0.24
28892 H 221.06993767576955 10.061086474002053 105.35842141713007 H 0.0 **** 0.06
28893 H 219.8754013258868 11.101427169277287 104.54599726253682 H 0.0 **** 0.06
28894 H 221.5522390878076 11.662692870317613 104.75019272292874 H 0.0 **** 0.06
28895 H 220.47899675042487 11.534837794921799 106.16378700628829 H 0.0 **** 0.06
28896 C 100.49654046520305 11.147079732763558 130.2234707619184 C 0.0 **** -0.24
28897 H 100.74314509849066 12.188367074004844 130.43119268714275 H 0.0 **** 0.06
28898 H 100.48553991736654 10.583485930824509 131.15702182899972 H 0.0 **** 0.06
28899 H 101.24305403436531 10.724850575545673 129.551713673089 H 0.0 **** 0.06
28900 H 99.51364110181916 11.094575557904392 129.75474618767686 H 0.0 **** 0.06
28901 C 6.5534991728772525 226.29427626695906 73.09399617364795 C 0.0 **** -0.24
28902 H 5.584267561782781 226.56292922516516 73.51623574826448 H 0.0 **** 0.06
28903 H 7.34417561010325 226.59860298103814 73.77970280957189 H 0.0 **** 0.06
28904 H 6.685767735967147 226.80033653190742 72.13798069301734 H 0.0 **** 0.06
28905 H 6.5970515415158815 225.2157602997931 72.94510674951488 H 0.0 **** 0.06
28906 C 228.11804979769747 12.56194799027098 149.07919178874806 C 0.0 **** -0.24
28907 H 228.44690234310312 11.912356289663805 148.2682175647942 H 0.0 **** 0.06
28908 H 228.18349944478936 13.602751553389922 148.7600901306474 H 0.0 **** 0.06
28909 H 228.75506054310526 12.408215656254043 149.94969752677866 H 0.0 **** 0.06
28910 H 227.08591426879636 12.325000737464507 149.33856184183597 H 0.0 **** 0.06
28911 C 131.9749658936188 124.21577708030512 239.84106668251655 C 0.0 **** -0.24
28912 H 131.31245198704227 124.64027784788442 239.0875257216236 H 0.0 **** 0.06
28913 H 132.48737804909436 125.02069294311397 240.36966844475145 H 0.0 **** 0.06
28914 H 132.71050726213412 123.57275144491379 239.35839962301108 H 0.0 **** 0.06
28915 H 131.38988659711535 123.63005185937206 240.55023080554906 H 0.0 **** 0.06
28916 C 125.30883230558166 243.26513976862185 74.81743409050333 C 0.0 **** -0.24
28917 H 125.6927957054584 242.50485990713065 74.13653746231753 H 0.0 **** 0.06
28918 H 125.6017665716339 243.01877877583166 75.83825011242155 H 0.0 **** 0.06
28919 H 124.2211961442728 243.2983970830171 74.7492350683921 H 0.0 **** 0.06
28920 H 125.71999304096892 244.23727879426775 74.54519130414542 H 0.0 **** 0.06
28921 C 5.092691663699981 196.8298776630918 16.09710362523387 C 0.0 **** -0.24
28922 H 5.056594726498616 197.27420931436072 17.091258016597948 H 0.0 **** 0.06
28923 H 4.407126149451784 195.98288723172385 16.05277850685738 H 0.0 **** 0.06
28924 H 6.106411873652888 196.4885263534136 15.889423148627174 H 0.0 **** 0.06
28925 H 4.799947712598538 197.57387195363702 15.356191319685053 H 0.0 **** 0.06
28926 C 194.64663244259063 163.7136099920942 9.753424037517703 C 0.0 **** -0.24
28927 H 194.3125178495761 164.60928775138123 9.22860371489233 H 0.0 **** 0.06
28928 H 195.4776094737307 163.26248311453708 9.209958035188237 H 0.0 **** 0.06
28929 H 193.82269665695253 163.00177527928562 9.814919924283117 H 0.0 **** 0.06
28930 H 194.97044075752962 163.98098218832246 10.758389129104785 H 0.0 **** 0.06
28931 C 84.09954657297999 98.42975014205979 182.27865731729864 C 0.0 **** -0.24
28932 H 83.27256765911295 98.43302583173144 181.56886881988925 H 0.0 **** 0.06
28933 H 83.98467149877345 99.26160559706588 182.97390388700586 H 0.0 **** 0.06
28934 H 85.04125565292253 98.5336983123953 181.74011915594724 H 0.0 **** 0.06
28935 H 84.09895535642048 97.49117641573073 182.8321874177519 H 0.0 **** 0.06
28936 C 150.68269861165962 36.79095855525884 166.28252780259072 C 0.0 **** -0.24
28937 H 149.741393136797 37.341141407061514 166.27178493856422 H 0.0 **** 0.06
28938 H 150.867795971117 36.40667798658362 167.28636842538586 H 0.0 **** 0.06
28939 H 151.49553445908666 37.4559354379177 165.9920933153056 H 0.0 **** 0.06
28940 H 150.6248667718326 35.95883475647875 165.57983224617368 H 0.0 **** 0.06
28941 C 52.829421199462956 84.99446194943292 116.49642875707508 C 0.0 **** -0.24
28942 H 51.94857045833882 85.38528008142694 115.98909187844922 H 0.0 **** 0.06
28943 H 52.528950201653856 84.50852023547031 117.42470964096941 H 0.0 **** 0.06
28944 H 53.51331582856119 85.81361054585543 116.71883892568718 H 0.0 **** 0.06
28945 H 53.32865252296068 84.2701564020623 115.85178378381843 H 0.0 **** 0.06
28946 C 227.22290475821274 63.864140388849336 169.45892467700853 C 0.0 **** -0.24
28947 H 226.9961034412186 63.45139186557944 168.47591074611108 H 0.0 **** 0.06
28948 H 226.29508204853713 64.15936159039754 169.9503817398563 H 0.0 **** 0.06
28949 H 227.8674690038412 64.73518884457215 169.34703599791095 H 0.0 **** 0.06
28950 H 227.7301297293004 63.11149496911494 170.06127611519184 H 0.0 **** 0.06
28951 C 5.690623946395391 62.84225309781351 39.805928576754866 C 0.0 **** -0.24
28952 H 4.985640317085142 63.63287181985487 39.546911785395466 H 0.0 **** 0.06
28953 H 6.309704161808085 63.167608976134716 40.642348814643356 H 0.0 **** 0.06
28954 H 6.32508701996413 62.62503085338602 38.94695263491609 H 0.0 **** 0.06
28955 H 5.140418992796356 61.94507200108785 40.088408932633385 H 0.0 **** 0.06
28956 C 60.93681725425617 188.51844313877936 183.01903807906712 C 0.0 **** -0.24
28957 H 59.87860477523998 188.5388790615578 182.76042198958768 H 0.0 **** 0.06
28958 H 61.31754157605462 187.50232116088296 182.9103334459374 H 0.0 **** 0.06
28959 H 61.064068875822784 188.84576165890832 184.05137774677468 H 0.0 **** 0.06
28960 H 61.48627921919456 189.18680190122322 182.35611675451116 H 0.0 **** 0.06
28961 C 248.73196952078473 47.71317674318769 92.40740119319051 C 0.0 **** -0.24
28962 H 248.1997149293511 48.50800907788894 92.93041857675868 H 0.0 **** 0.06
28963 H 249.15753852825492 48.10686572866686 91.48431421327243 H 0.0 **** 0.06
28964 H 248.03884172667668 46.905593992235225 92.1722724444256 H 0.0 **** 0.06
28965 H 249.53125904396558 47.331437738981464 93.04289089656695 H 0.0 **** 0.06
28966 C 126.40417925009788 77.65429685776783 143.8997546438962 C 0.0 **** -0.24
28967 H 126.1491050957346 77.26927470201127 142.91257447708375 H 0.0 **** 0.06
28968 H 125.51708039747686 77.64536543271603 144.53400730336577 H 0.0 **** 0.06
28969 H 126.77462095346604 78.67573200524635 143.80680969460926 H 0.0 **** 0.06
28970 H 127.17714912436477 77.02742725746924 144.3453246780103 H 0.0 **** 0.06
28971 C 73.80920891294531 200.39855167666502 37.11547508940248 C 0.0 **** -0.24
28972 H 73.75311451699304 199.7553842735981 37.994290024073166 H 0.0 **** 0.06
28973 H 74.79436139252246 200.30447094527062 36.659336984710805 H 0.0 **** 0.06
28974 H 73.64290290825636 201.43355509473338 37.41189673727749 H 0.0 **** 0.06
28975 H 73.04484428706718 200.0992265021996 36.39734366556797 H 0.0 **** 0.06
28976 C 186.99317342608407 44.17761684793359 68.4743943832693 C 0.0 **** -0.24
28977 H 187.87575320890392 44.63267876449103 68.02610414547476 H 0.0 **** 0.06
28978 H 186.11028796951283 44.45271867612823 67.89777768268692 H 0.0 **** 0.06
28979 H 186.882737131047 44.53103406448551 69.49956444943123 H 0.0 **** 0.06
28980 H 187.10450166064217 43.09346810769071 68.47470912161134 H 0.0 **** 0.06
28981 C 107.26427456478481 113.83385819033188 60.2261291261062 C 0.0 **** -0.24
28982 H 106.5035391701366 114.60718839865896 60.330165716777145 H 0.0 **** 0.06
28983 H 108.025353729301 114.16496977870051 59.51964120019565 H 0.0 **** 0.06
28984 H 106.80262900813119 112.91682899272311 59.86077122707454 H 0.0 **** 0.06
28985 H 107.72637372774355 113.64607661831141 61.19599459453249 H 0.0 **** 0.06
28986 C 68.959301806973 54.61505186643541 178.96808706482773 C 0.0 **** -0.24
28987 H 68.71985260387459 55.246058612043186 179.82298303402303 H 0.0 **** 0.06
28988 H 69.85134463380075 54.997717289620255 178.4727292823085 H 0.0 **** 0.06
28989 H 68.12375567913207 54.619336024154876 178.26775151069003 H 0.0 **** 0.06
28990 H 69.14213479729071 53.59568697967384 179.30892558993213 H 0.0 **** 0.06
28991 C 230.96821148352097 24.936257477990395 152.80801675952472 C 0.0 **** -0.24
28992 H 231.02757915334075 24.146297796006365 152.05932740497562 H 0.0 **** 0.06
28993 H 229.9344407249122 25.269729339653793 152.9041994775497 H 0.0 **** 0.06
28994 H 231.5936052147867 25.774446616718834 152.50207197747937 H 0.0 **** 0.06
28995 H 231.31725850341738 24.554365967037057 153.76744920718593 H 0.0 **** 0.06
28996 C 229.98615973519875 197.65426930712076 136.05700677852232 C 0.0 **** -0.24
28997 H 229.71757384960773 197.4258364817543 135.02615003554916 H 0.0 **** 0.06
28998 H 229.35111619360558 197.0809562585394 136.7325061636201 H 0.0 **** 0.06
28999 H 229.84592337500507 198.71893835750706 136.2409663801066 H 0.0 **** 0.06
29000 H 231.02978715120568 197.39065716617333 136.2277200519923 H 0.0 **** 0.06
29001 C 154.3332077209529 247.88916679243306 3.520828046506338 C 0.0 **** -0.24
29002 H 153.30857816456674 248.01040161063617 3.871953319955267 H 0.0 **** 0.06
29003 H 154.7158408687176 246.9209200731862 3.844412253411278 H 0.0 **** 0.06
29004 H 154.95518963422373 248.68301264688574 3.934920828506904 H 0.0 **** 0.06
29005 H 154.3532004299866 247.94339447013414 2.432959852788443 H 0.0 **** 0.06
29006 C 155.6299184529231 114.64708349144934 46.62994907080996 C 0.0 **** -0.24
29007 H 155.42900864029193 114.76463385839963 47.694139708648905 H 0.0 **** 0.06
29008 H 155.18222192291054 115.47677757776273 46.082098618954205 H 0.0 **** 0.06
29009 H 155.20037141154262 113.70736170085218 46.28064565090324 H 0.0 **** 0.06
29010 H 156.70616573512456 114.63785725679443 46.46134236653087 H 0.0 **** 0.06
29011 C 91.2329483389166 73.3398802046984 0.05690148913376447 C 0.0 **** -0.24
29012 H 91.42159268157721 73.08503677416448 -0.9850134246813411 H 0.0 **** 0.06
29013 H 91.52454355203349 72.50406233527232 0.6938703282632446 H 0.0 **** 0.06
29014 H 90.17219360926163 73.5481404864764 0.1937540367985946 H 0.0 **** 0.06
29015 H 91.8145739820888 74.22185148514458 0.32575803836824946 H 0.0 **** 0.06
29016 C 207.64869649154576 98.13470980735894 200.59874814776785 C 0.0 **** -0.24
29017 H 207.63446055185418 98.47904451369345 199.56484461579902 H 0.0 **** 0.06
29018 H 206.8808249547891 98.65969300623078 201.16808769974836 H 0.0 **** 0.06
29019 H 208.62702729281187 98.33585519820863 201.03521801388626 H 0.0 **** 0.06
29020 H 207.45292757200528 97.06206920678127 200.62707228240112 H 0.0 **** 0.06
29021 C 205.15515878529416 84.15388497426437 171.40967136366166 C 0.0 **** -0.24
29022 H 205.71982221480982 83.36140283029408 170.9183915725686 H 0.0 **** 0.06
29023 H 204.90835629821808 83.8482547788872 172.42679441053528 H 0.0 **** 0.06
29024 H 204.23635452859517 84.34249751343305 170.85438619625674 H 0.0 **** 0.06
29025 H 205.75555066492524 85.06315607248015 171.43831101285994 H 0.0 **** 0.06
29026 C 185.30161174753815 222.90315589559745 114.79288453591172 C 0.0 **** -0.24
29027 H 185.61809917996246 223.67332808817105 115.496074456961 H 0.0 **** 0.06
29028 H 186.1585855775652 222.29046752223067 114.51555013984768 H 0.0 **** 0.06
29029 H 184.88758833171727 223.37431307647367 113.90150970473056 H 0.0 **** 0.06
29030 H 184.54101354018388 222.2759211145491 115.25922612549363 H 0.0 **** 0.06
29031 C 204.5485659371373 151.9649590286204 154.72506947956447 C 0.0 **** -0.24
29032 H 203.92631143344784 151.90060556746954 153.83341342643715 H 0.0 **** 0.06
29033 H 205.59927568809945 151.99671742128677 154.43415710847793 H 0.0 **** 0.06
29034 H 204.37163530198197 151.09314473777783 155.35469790864005 H 0.0 **** 0.06
29035 H 204.29732386568688 152.8694911407395 155.2789608485835 H 0.0 **** 0.06
29036 C 127.88132469069257 103.39406793083197 3.5260046906783913 C 0.0 **** -0.24
29037 H 127.51895607920682 103.43324983122008 2.49908729849993 H 0.0 **** 0.06
29038 H 127.04026216522368 103.49743527808806 4.211817049721546 H 0.0 **** 0.06
29039 H 128.58797314925567 104.20728182814511 3.6928330040926056 H 0.0 **** 0.06
29040 H 128.37705693414154 102.43968074535118 3.700223521174948 H 0.0 **** 0.06
29041 C 117.76061259884904 169.4147423434231 146.70332834116257 C 0.0 **** -0.24
29042 H 118.44759456737074 169.583850600008 145.87349959268028 H 0.0 **** 0.06
29043 H 116.73747303529302 169.59014594589365 146.36929752064796 H 0.0 **** 0.06
29044 H 118.00025045235452 170.09740936930746 147.51835839975416 H 0.0 **** 0.06
29045 H 117.8581148748413 168.38566604816987 147.05096013768008 H 0.0 **** 0.06
29046 C 21.461081755005935 52.55844757667231 235.08186325220112 C 0.0 **** -0.24
29047 H 20.532175034909613 52.64224313820742 235.6467766855526 H 0.0 **** 0.06
29048 H 22.16110603008326 51.923866290966004 235.627222028661 H 0.0 **** 0.06
29049 H 21.895138151807544 53.5491835103098 234.9503949483651 H 0.0 **** 0.06
29050 H 21.255150854980798 52.119220883891074 234.10665151677995 H 0.0 **** 0.06
29051 C 132.05728236288965 126.74238043574263 80.61168407366856 C 0.0 **** -0.24
29052 H 131.734182923944 127.5291871353815 79.9295641829815 H 0.0 **** 0.06
29053 H 131.48147763524207 126.80362968454659 81.5347144124207 H 0.0 **** 0.06
29054 H 133.1165325062311 126.86843302446474 80.83455947071738 H 0.0 **** 0.06
29055 H 131.8965837669523 125.7708159502946 80.14605335513235 H 0.0 **** 0.06
29056 C 121.28704432718612 164.25689427455006 106.44889622375547 C 0.0 **** -0.24
29057 H 121.81429709545378 163.9301277365931 107.34565579316458 H 0.0 **** 0.06
29058 H 121.16062064328725 165.3390425698625 106.4769263029741 H 0.0 **** 0.06
29059 H 120.3080705254215 163.77779541343065 106.40785769965325 H 0.0 **** 0.06
29060 H 121.86358983406086 163.98041280426034 105.56698986275939 H 0.0 **** 0.06
29061 C 200.27262481532566 134.25568160992026 59.031350134247475 C 0.0 **** -0.24
29062 H 201.22144387842164 134.51448521822974 58.561277110251865 H 0.0 **** 0.06
29063 H 199.6714134239427 135.15671375373827 59.15419357392835 H 0.0 **** 0.06
29064 H 200.45991445548165 133.80806940255786 60.00699682437124 H 0.0 **** 0.06
29065 H 199.73723754405572 133.544217284969 58.40184512010836 H 0.0 **** 0.06
29066 C 168.502127871372 241.74320732425787 26.084217813346726 C 0.0 **** -0.24
29067 H 169.2906091739549 241.920376442279 26.81604423647869 H 0.0 **** 0.06
29068 H 168.21287047399215 240.69155640447303 26.10991005778307 H 0.0 **** 0.06
29069 H 168.86703325763676 241.9960413730716 25.08877641841663 H 0.0 **** 0.06
29070 H 167.63908128915236 242.36368923835303 26.323352398538063 H 0.0 **** 0.06
29071 C 77.81012657012022 151.86049631298678 109.18943950847682 C 0.0 **** -0.24
29072 H 78.76398698161583 151.56447296763645 109.62828353833038 H 0.0 **** 0.06
29073 H 77.1727135413494 152.28812580340204 109.96402341539817 H 0.0 **** 0.06
29074 H 77.32229391050211 150.98642100050907 108.7577866208162 H 0.0 **** 0.06
29075 H 77.98391981719394 152.60256428066083 108.41050009944979 H 0.0 **** 0.06
29076 C 73.1181993823129 123.42127527218489 24.33427524626302 C 0.0 **** -0.24
29077 H 73.51631230864504 122.96101959972634 25.238744364444685 H 0.0 **** 0.06
29078 H 73.11870070864038 122.69151266943226 23.5245352493411 H 0.0 **** 0.06
29079 H 73.73998615005328 124.27289096777113 24.055981330843622 H 0.0 **** 0.06
29080 H 72.09952718108684 123.76109332429812 24.517927622308477 H 0.0 **** 0.06
29081 C 82.34038223641721 21.63814023827669 144.59892194742392 C 0.0 **** -0.24
29082 H 81.40141943556199 22.170871975558114 144.7494421249234 H 0.0 **** 0.06
29083 H 83.17412507039955 22.32681198867995 144.73884580001533 H 0.0 **** 0.06
29084 H 82.36935629944932 21.232498611348944 143.5875086068181 H 0.0 **** 0.06
29085 H 82.41623448792271 20.823921303538953 145.31920975493014 H 0.0 **** 0.06
29086 C 60.91974020270999 205.25531573031662 38.820273191710555 C 0.0 **** -0.24
29087 H 60.406290576012196 204.91564344336285 39.71943712645229 H 0.0 **** 0.06
29088 H 61.675250129811644 204.5230805238174 38.53499977229673 H 0.0 **** 0.06
29089 H 61.399073823937016 206.21488159265257 39.01663310110307 H 0.0 **** 0.06
29090 H 60.198310256330416 205.36767201121478 38.01102201537708 H 0.0 **** 0.06
29091 C 34.339557714577154 239.14038572398402 73.17617277149881 C 0.0 **** -0.24
29092 H 35.12713152955311 239.71869969263764 72.69302268180121 H 0.0 **** 0.06
29093 H 34.29408463402869 239.40184319566654 74.23388954318895 H 0.0 **** 0.06
29094 H 34.55395403199286 238.07682092214034 73.07323251305374 H 0.0 **** 0.06
29095 H 33.38320441424125 239.36638635205588 72.70421869187231 H 0.0 **** 0.06
29096 C 230.30945612880163 191.66585745538873 82.16208175161529 C 0.0 **** -0.24
29097 H 229.70726860500633 191.28054122286173 81.33983778098303 H 0.0 **** 0.06
29098 H 229.9476950273168 191.2508768440523 83.10296142988446 H 0.0 **** 0.06
29099 H 230.23197810824533 192.7528632363535 82.18963460772775 H 0.0 **** 0.06
29100 H 231.35150245215348 191.37915922110238 82.01510839810811 H 0.0 **** 0.06
29101 C 202.5888580332857 237.81562245154902 216.1024871813866 C 0.0 **** -0.24
29102 H 203.38037984578625 238.12579295228218 215.42012213822898 H 0.0 **** 0.06
29103 H 201.79910888681397 237.3184488249443 215.53958111794242 H 0.0 **** 0.06
29104 H 202.18086914949833 238.691410401706 216.60661226630197 H 0.0 **** 0.06
29105 H 202.997751757006 237.12786880948772 216.84275701092315 H 0.0 **** 0.06
29106 C 32.7494981225602 56.9296368930961 214.09059657909796 C 0.0 **** -0.24
29107 H 32.249695193605575 56.69147046981843 215.02984221362925 H 0.0 **** 0.06
29108 H 32.92221996640322 56.01125026453141 213.52782597534855 H 0.0 **** 0.06
29109 H 33.70368046979007 57.41276311941212 214.29980141232403 H 0.0 **** 0.06
29110 H 32.12238100919079 57.60272313417906 213.5058568005715 H 0.0 **** 0.06
29111 C 194.97265319052644 70.88496673418032 201.32679036309642 C 0.0 **** -0.24
29112 H 193.93817151503302 70.5445201747468 201.37751883067864 H 0.0 **** 0.06
29113 H 195.63065920104827 70.10462033095402 201.7110925420248 H 0.0 **** 0.06
29114 H 195.08835913752347 71.78737090849481 201.92612282304904 H 0.0 **** 0.06
29115 H 195.23268950416593 71.10113098372196 200.28950943526823 H 0.0 **** 0.06
29116 C 0.36362811873378575 194.44272980938655 99.83564680622621 C 0.0 **** -0.24
29117 H 1.3008054209773547 194.06164053154347 99.43143000298056 H 0.0 **** 0.06
29118 H 0.297342153776043 195.51435946309422 99.65012156146554 H 0.0 **** 0.06
29119 H 0.3282211708938405 194.25679780410877 100.90983264771842 H 0.0 **** 0.06
29120 H -0.47242031264522666 193.93796414043905 99.35249030967489 H 0.0 **** 0.06
29121 C 10.570046118901118 57.56665703471617 56.486151011772876 C 0.0 **** -0.24
29122 H 11.64668715936429 57.39754715094773 56.469583406774376 H 0.0 **** 0.06
29123 H 10.076172166859195 56.82824070389631 55.85403755905239 H 0.0 **** 0.06
29124 H 10.353678084804514 58.5680505278834 56.11268812978685 H 0.0 **** 0.06
29125 H 10.203936223170189 57.474135999039476 57.50797240406851 H 0.0 **** 0.06
29126 C 26.725280276063273 240.54701480220857 80.23788688500406 C 0.0 **** -0.24
29127 H 26.62592618223512 239.51314619808 80.56775661277572 H 0.0 **** 0.06
29128 H 25.909591882472043 241.14013059665626 80.65227157976835 H 0.0 **** 0.06
29129 H 26.686078627865754 240.5857203552832 79.148886568976 H 0.0 **** 0.06
29130 H 27.67818041418714 240.94777556549917 80.58103945991147 H 0.0 **** 0.06
29131 C 152.80131134010767 244.06702096395287 73.27994264054203 C 0.0 **** -0.24
29132 H 153.55578859618254 244.5922148009625 72.6947280925223 H 0.0 **** 0.06
29133 H 151.8125098625709 244.4475263762398 73.02235800261585 H 0.0 **** 0.06
29134 H 152.98772156164472 244.22858506682502 74.34147400376625 H 0.0 **** 0.06
29135 H 152.84922534003243 242.99975761178422 73.0612104632637 H 0.0 **** 0.06
29136 C 229.61002691653576 64.52433636547056 74.33284118553397 C 0.0 **** -0.24
29137 H 230.38260533132032 64.96762131927795 74.96078593454311 H 0.0 **** 0.06
29138 H 229.40395272112713 65.18496899004316 73.49001881897084 H 0.0 **** 0.06
29139 H 228.7005848242777 64.38750213856193 74.91754712890017 H 0.0 **** 0.06
29140 H 229.95262165521774 63.55878807320025 73.96228768292775 H 0.0 **** 0.06
29141 C 119.15748997062386 192.41750666329384 216.41496416360775 C 0.0 **** -0.24
29142 H 120.16854333559664 192.0879034193535 216.17534286739908 H 0.0 **** 0.06
29143 H 118.68051161144837 191.68393601619675 217.06455812510956 H 0.0 **** 0.06
29144 H 118.58111607990767 192.5170642620128 215.49522779321694 H 0.0 **** 0.06
29145 H 119.20155777613255 193.38066993586727 216.92309515578427 H 0.0 **** 0.06
29146 C 45.70849039027905 230.12682772724793 61.679865183721034 C 0.0 **** -0.24
29147 H 46.49147489047451 229.5129003012076 62.12435809889408 H 0.0 **** 0.06
29148 H 45.655512494628084 231.08221568724105 62.20292614372198 H 0.0 **** 0.06
29149 H 44.750716896151744 229.6123413821805 61.766232522495216 H 0.0 **** 0.06
29150 H 45.934839745325135 230.29945855566058 60.62790219420518 H 0.0 **** 0.06
29151 C 2.65171638464426 148.8227877271732 98.72185082086068 C 0.0 **** -0.24
29152 H 2.7028556873879097 149.89658088339309 98.90255666017237 H 0.0 **** 0.06
29153 H 1.9836322693186617 148.3637352150962 99.45167202544332 H 0.0 **** 0.06
29154 H 3.647044084071524 148.38942112720903 98.81735330769985 H 0.0 **** 0.06
29155 H 2.2711927190089796 148.64245511399878 97.71639795819584 H 0.0 **** 0.06
29156 C 13.208626048955665 26.688944788498844 114.92947832598497 C 0.0 **** -0.24
29157 H 12.454069923753735 27.298618027365507 115.42459664138386 H 0.0 **** 0.06
29158 H 14.05063748992174 26.53295804667229 115.60542984745896 H 0.0 **** 0.06
29159 H 13.554551129358885 27.198026646823877 114.02996897761932 H 0.0 **** 0.06
29160 H 12.777342558665936 25.725090471927132 114.6585687848058 H 0.0 **** 0.06
29161 C 177.62183986741258 56.60303218597821 84.00212750322888 C 0.0 **** -0.24
29162 H 176.630676511922 56.18965575874955 83.81906279201948 H 0.0 **** 0.06
29163 H 177.9519195549013 56.32341864914747 85.00383667404012 H 0.0 **** 0.06
29164 H 177.58361936196872 57.68863688002975 83.9222826947931 H 0.0 **** 0.06
29165 H 178.32141955219834 56.20834119594792 83.2654757173735 H 0.0 **** 0.06
29166 C 21.800666911308454 124.93033105383537 240.8717210977613 C 0.0 **** -0.24
29167 H 21.873887560155254 124.3835734426693 241.81145053403182 H 0.0 **** 0.06
29168 H 22.222640834928626 124.32642457995141 240.06769338768268 H 0.0 **** 0.06
29169 H 22.3522071501133 125.86692430000497 240.9507528689109 H 0.0 **** 0.06
29170 H 20.753044539404883 125.14246512515106 240.65577878862715 H 0.0 **** 0.06
29171 C 73.4661645075135 207.4023407843471 55.383353941796656 C 0.0 **** -0.24
29172 H 74.52493901581437 207.15127169483503 55.45063266373532 H 0.0 **** 0.06
29173 H 73.32784119859042 208.45793874602083 55.61650876470753 H 0.0 **** 0.06
29174 H 72.90392636041207 206.79620507929425 56.093736474361634 H 0.0 **** 0.06
29175 H 73.10948437135215 207.20234846787355 54.372842722023336 H 0.0 **** 0.06
29176 C 221.70414134426144 111.37194324695886 141.87875107503396 C 0.0 **** -0.24
29177 H 221.89682347402012 110.64296261865374 142.66585107447557 H 0.0 **** 0.06
29178 H 222.549550790317 112.05636753146973 141.80262719846743 H 0.0 **** 0.06
29179 H 220.8012121903338 111.93424360806736 142.11717887954478 H 0.0 **** 0.06
29180 H 221.5696410460151 110.85295091904396 140.9294048746289 H 0.0 **** 0.06
29181 C 192.35059502409348 121.17079249749841 69.11529933468879 C 0.0 **** -0.24
29182 H 193.18103944191975 121.87084752760848 69.2072645099137 H 0.0 **** 0.06
29183 H 191.9915117967401 120.90151381500164 70.10807412577961 H 0.0 **** 0.06
29184 H 192.68751075515365 120.2743943849803 68.59412778084561 H 0.0 **** 0.06
29185 H 191.54313222132248 121.63837903620762 68.55104032593329 H 0.0 **** 0.06
29186 C 153.20870910871145 22.88297499880818 212.68522533635 C 0.0 **** -0.24
29187 H 153.85874614423278 22.9457076521754 211.81299026042595 H 0.0 **** 0.06
29188 H 152.8287508256975 21.865202476723596 212.78326809460225 H 0.0 **** 0.06
29189 H 152.37386238179442 23.572505497613037 212.56680157736446 H 0.0 **** 0.06
29190 H 153.7739592418539 23.147398688095222 213.57860877212198 H 0.0 **** 0.06
29191 C 141.13685877588807 195.94640591292023 72.7727887395832 C 0.0 **** -0.24
29192 H 140.1238882540979 196.34309975208632 72.6948316800879 H 0.0 **** 0.06
29193 H 141.52659007539089 195.74702615160476 71.77428796376145 H 0.0 **** 0.06
29194 H 141.1204372530158 195.02133535669725 73.3488055500182 H 0.0 **** 0.06
29195 H 141.77387480896627 196.67515092664934 73.27339820957616 H 0.0 **** 0.06
29196 C 138.0892544286037 86.74747883592175 190.31742791699375 C 0.0 **** -0.24
29197 H 138.0754149855003 85.82911400232302 189.73052922844087 H 0.0 **** 0.06
29198 H 139.04226383143325 87.25705335293108 190.17277845885624 H 0.0 **** 0.06
29199 H 137.96367012666306 86.5047143933154 191.37287786047474 H 0.0 **** 0.06
29200 H 137.27618492436062 87.3970851777955 189.99449426489636 H 0.0 **** 0.06
29201 C 97.06247894373027 150.03474190244992 59.86793860997918 C 0.0 **** -0.24
29202 H 97.66604065733324 150.0716272537717 58.96084804048226 H 0.0 **** 0.06
29203 H 96.58917908099076 149.0561968163428 59.94918098829285 H 0.0 **** 0.06
29204 H 96.29531642818287 150.80788409340963 59.82553110845839 H 0.0 **** 0.06
29205 H 97.70080495630847 150.20339427512192 60.73479779149005 H 0.0 **** 0.06
29206 C 88.5595025744372 95.01017995339853 83.39461366840104 C 0.0 **** -0.24
29207 H 87.70668415622137 94.91634016042059 82.72352843397084 H 0.0 **** 0.06
29208 H 88.20428019113541 95.13670868334262 84.41794212032877 H 0.0 **** 0.06
29209 H 89.15487755686505 95.87683958154702 83.10710316501735 H 0.0 **** 0.06
29210 H 89.17246251494399 94.11113475810552 83.33123057601892 H 0.0 **** 0.06
29211 C 65.17026815345548 134.92141056764328 192.6944729598962 C 0.0 **** -0.24
29212 H 64.32421775244958 134.5734934228085 193.28858571438084 H 0.0 **** 0.06
29213 H 64.95984938012927 135.92027995779767 192.313966143098 H 0.0 **** 0.06
29214 H 65.33194858513235 134.2396538250112 191.85966355147926 H 0.0 **** 0.06
29215 H 66.06416646582292 134.95041656192294 193.31812032467448 H 0.0 **** 0.06
29216 C 34.686501324270665 214.24150420526547 245.47673024476524 C 0.0 **** -0.24
29217 H 35.59924961698286 214.83584565143167 245.49776250159587 H 0.0 **** 0.06
29218 H 34.910502696316655 213.2208484623643 245.78603075201482 H 0.0 **** 0.06
29219 H 34.28096937392898 214.2341357171357 244.46448219119742 H 0.0 **** 0.06
29220 H 33.954761531444646 214.6759874083004 246.15835095892334 H 0.0 **** 0.06
29221 C 213.49906719666984 29.767230541546326 83.8196376407856 C 0.0 **** -0.24
29222 H 214.04333168018502 30.674248915953328 83.55458968325829 H 0.0 **** 0.06
29223 H 212.81467807644285 29.506330458756082 83.0126213804995 H 0.0 **** 0.06
29224 H 212.93416307927288 29.937873669387102 84.73530232627192 H 0.0 **** 0.06
29225 H 214.20655153572358 28.952211450135465 83.97507048136711 H 0.0 **** 0.06
29226 C 225.24826715502513 159.38419993968728 65.5819795084796 C 0.0 **** -0.24
29227 H 224.81859324561032 159.05113799351275 64.63684954512863 H 0.0 **** 0.06
29228 H 225.61986296005756 158.52130909522415 66.1350631565711 H 0.0 **** 0.06
29229 H 224.48324975069698 159.8921395868243 66.16990659824705 H 0.0 **** 0.06
29230 H 226.07056038804575 160.0711188904248 65.38432133570402 H 0.0 **** 0.06
29231 C 66.39163961075516 232.2727091412382 226.31550711954378 C 0.0 **** -0.24
29232 H 67.28239196623525 231.95462311956067 225.77380324040465 H 0.0 **** 0.06
29233 H 66.41585776447343 231.86189794446187 227.32510764251055 H 0.0 **** 0.06
29234 H 65.50356356042315 231.91115768908182 225.79749067020143 H 0.0 **** 0.06
29235 H 66.36567509655487 233.3609152873113 226.36595303093557 H 0.0 **** 0.06
29236 C 144.610718152631 21.94811177413159 172.83778283782246 C 0.0 **** -0.24
29237 H 143.63502998030233 22.369296233172747 173.07980310409587 H 0.0 **** 0.06
29238 H 145.2269869879096 22.71108303181819 172.3626479649634 H 0.0 **** 0.06
29239 H 144.48291742588825 21.107017733708943 172.15684499036882 H 0.0 **** 0.06
29240 H 145.0956570709637 21.6058849837968 173.75152001542537 H 0.0 **** 0.06
29241 C 212.53283665121646 90.09503792371592 97.53533348878611 C 0.0 **** -0.24
29242 H 212.6229564600493 89.04602505218884 97.25257743075073 H 0.0 **** 0.06
29243 H 211.81779843304074 90.58916274367985 96.87723426975114 H 0.0 **** 0.06
29244 H 213.50484004578766 90.58012734411557 97.44563273817565 H 0.0 **** 0.06
29245 H 212.18597462332377 90.16467476144226 98.5668508294477 H 0.0 **** 0.06
29246 C 95.78524600202567 16.527709848769774 234.8576050849988 C 0.0 **** -0.24
29247 H 96.29268239498626 17.173359280623487 235.57390717272636 H 0.0 **** 0.06
29248 H 94.70811733709522 16.67461525163978 234.93491748733607 H 0.0 **** 0.06
29249 H 96.02643642708452 15.486942466237082 235.07227459154404 H 0.0 **** 0.06
29250 H 96.11473583515985 16.77577667285712 233.84831975562946 H 0.0 **** 0.06
29251 C 79.65551131972626 242.97193972169663 157.59361708143948 C 0.0 **** -0.24
29252 H 78.59518772082484 243.02255836864322 157.8426014071387 H 0.0 **** 0.06
29253 H 80.20429973491903 243.69865139003156 158.19121810133933 H 0.0 **** 0.06
29254 H 79.78962177823107 243.1953568453294 156.53435188293267 H 0.0 **** 0.06
29255 H 80.03014449682254 241.9706193792033 157.80331713465776 H 0.0 **** 0.06
29256 C 5.743346689419013 203.57057947557345 241.77967559552724 C 0.0 **** -0.24
29257 H 4.864680652029563 203.97232582465452 242.28472850263643 H 0.0 **** 0.06
29258 H 6.153615114011373 202.747243685299 242.36514342024583 H 0.0 **** 0.06
29259 H 6.493486932412125 204.35388748907616 241.67825209755358 H 0.0 **** 0.06
29260 H 5.460000769599333 203.20738993095677 240.79170342224 H 0.0 **** 0.06
29261 C 186.36928594408013 61.53953221750041 105.08725655530108 C 0.0 **** -0.24
29262 H 186.99551779946052 61.05788430888944 105.83787331461909 H 0.0 **** 0.06
29263 H 186.6050085807821 62.60319840773465 105.04572766256712 H 0.0 **** 0.06
29264 H 185.32070021454302 61.40885312889631 105.35231409737682 H 0.0 **** 0.06
29265 H 186.55665539230512 61.086906052271246 104.11400488967024 H 0.0 **** 0.06
29266 C 7.89769062001605 109.79761386637068 227.520546267513 C 0.0 **** -0.24
29267 H 7.656727170851468 108.7397355361839 227.4096154913001 H 0.0 **** 0.06
29268 H 8.974118767501466 109.91195518026967 227.65341119578073 H 0.0 **** 0.06
29269 H 7.378604119150978 110.198870088375 228.3898673814989 H 0.0 **** 0.06
29270 H 7.581827162387782 110.33750560756914 226.62704877593075 H 0.0 **** 0.06
29271 C 66.2987321638013 237.14015465153477 33.127684360036625 C 0.0 **** -0.24
29272 H 66.67682616174025 236.3162443989708 32.52154377891648 H 0.0 **** 0.06
29273 H 67.11721460401176 237.81646468734596 33.373091764246425 H 0.0 **** 0.06
29274 H 65.86468224652899 236.74495114773697 34.045592536047565 H 0.0 **** 0.06
29275 H 65.53582470554383 237.68105921565754 32.568448252138495 H 0.0 **** 0.06
29276 C 57.62228883227763 183.58237031906714 236.36925390795557 C 0.0 **** -0.24
29277 H 57.57171584709357 184.6548431871064 236.1825887407577 H 0.0 **** 0.06
29278 H 58.55314439808271 183.1868792055499 235.96238750834493 H 0.0 **** 0.06
29279 H 56.77722524362224 183.0900367449395 235.88865454662923 H 0.0 **** 0.06
29280 H 57.58723178288059 183.39861572714085 237.44380350540126 H 0.0 **** 0.06
29281 C 174.54352420957747 81.310048026766 94.02882387817897 C 0.0 **** -0.24
29282 H 174.96305604999907 81.66207953998929 93.08697070114565 H 0.0 **** 0.06
29283 H 173.5246912651385 80.95620786361519 93.86207506165306 H 0.0 **** 0.06
29284 H 174.53140305366466 82.12714253874913 94.74968322545627 H 0.0 **** 0.06
29285 H 175.15288392290438 80.49368601410123 94.41579980430288 H 0.0 **** 0.06
29286 C 208.6483972961837 246.61801032710213 16.349495193253176 C 0.0 **** -0.24
29287 H 208.18407865160168 245.78017209527394 16.869375814245046 H 0.0 **** 0.06
29288 H 208.2405719118575 246.69192086020306 15.341777846957172 H 0.0 **** 0.06
29289 H 209.7252528743496 246.45920870084893 16.295590900189637 H 0.0 **** 0.06
29290 H 208.44505856341863 247.54012499662275 16.893831912139063 H 0.0 **** 0.06
29291 C 47.92138203433703 17.57769905675346 226.4607370775654 C 0.0 **** -0.24
29292 H 47.795794329584865 18.658663538869988 226.51518960085457 H 0.0 **** 0.06
29293 H 47.29275221765231 17.10037839196201 227.2123028453096 H 0.0 **** 0.06
29294 H 48.965072912236224 17.323670821358533 226.6446842757843 H 0.0 **** 0.06
29295 H 47.631702506659096 17.228384603844418 225.46940526689502 H 0.0 **** 0.06
29296 C 15.510630220427842 159.70228475015747 119.30421265590184 C 0.0 **** -0.24
29297 H 15.04145728154748 159.05210584373685 118.56681066399966 H 0.0 **** 0.06
29298 H 14.744375991901066 160.12913968432184 119.95260598381438 H 0.0 **** 0.06
29299 H 16.04374508398817 160.50539003964928 118.79514389079029 H 0.0 **** 0.06
29300 H 16.212782981032035 159.12356532496315 119.90449167299155 H 0.0 **** 0.06
29301 C 3.124943822816107 210.62012670225062 176.97407728993298 C 0.0 **** -0.24
29302 H 3.412820938341156 210.0349253794322 176.10078309783302 H 0.0 **** 0.06
29303 H 2.9797865165885185 209.95429073926474 177.8250957392842 H 0.0 **** 0.06
29304 H 2.1967901251138926 211.15184661767216 176.76489743294536 H 0.0 **** 0.06
29305 H 3.9124700052996673 211.33859335053756 177.20458492562534 H 0.0 **** 0.06
29306 C 21.74909339381915 166.73648975487995 138.25626720777072 C 0.0 **** -0.24
29307 H 22.442182875435464 166.02860752335707 137.80218871071608 H 0.0 **** 0.06
29308 H 22.16375793006972 167.7428996927754 138.1941871483455 H 0.0 **** 0.06
29309 H 21.592024342228186 166.47162824875804 139.30171795343637 H 0.0 **** 0.06
29310 H 20.796211416020995 166.70319902361646 137.7267955412918 H 0.0 **** 0.06
29311 C 163.53661954123532 196.17642150118212 165.14176312040829 C 0.0 **** -0.24
29312 H 162.5799184980792 196.68644257595724 165.25069510929455 H 0.0 **** 0.06
29313 H 164.15197348685786 196.36633340033612 166.02162252325974 H 0.0 **** 0.06
29314 H 164.04689502578142 196.54790168243403 164.2532593381503 H 0.0 **** 0.06
29315 H 163.3672973106157 195.10428553977334 165.04204335607275 H 0.0 **** 0.06
29316 C 156.65683617917244 210.72311323424333 12.399115144061767 C 0.0 **** -0.24
29317 H 156.12865766210592 209.85605716551532 12.795113618419407 H 0.0 **** 0.06
29318 H 157.4705983894201 210.3890247854235 11.75504562303334 H 0.0 **** 0.06
29319 H 157.06327461387988 211.30825882917173 13.224416910994563 H 0.0 **** 0.06
29320 H 155.9650085546568 211.3374495084916 11.823672670778507 H 0.0 **** 0.06
29321 C 247.64137747069287 31.98872775127009 166.34018500286706 C 0.0 **** -0.24
29322 H 246.6971541956966 31.46519205651302 166.48698194936782 H 0.0 **** 0.06
29323 H 248.4681162308231 31.321546761432984 166.58672329820698 H 0.0 **** 0.06
29324 H 247.67486365817348 32.86448669197418 166.98728739782166 H 0.0 **** 0.06
29325 H 247.7245089131013 32.30143103406638 165.2993399669572 H 0.0 **** 0.06
29326 C 51.724350080735434 60.600082423202224 208.98576370929138 C 0.0 **** -0.24
29327 H 52.40220166905098 60.60436685512178 208.1318776267379 H 0.0 **** 0.06
29328 H 51.59536883064274 59.57739785979632 209.34133465608966 H 0.0 **** 0.06
29329 H 50.75809176624611 61.00591267878747 208.68496934519084 H 0.0 **** 0.06
29330 H 52.142696134705176 61.21256119939028 209.78460155183694 H 0.0 **** 0.06
29331 C 184.4587632650351 55.91151798106128 223.10711015602686 C 0.0 **** -0.24
29332 H 184.68750297227467 54.95452756672833 223.57594388012149 H 0.0 **** 0.06
29333 H 185.38848449379896 56.42014109882996 222.8484394226896 H 0.0 **** 0.06
29334 H 183.88733399183127 56.52829628549526 223.8009715836645 H 0.0 **** 0.06
29335 H 183.87334387339337 55.74250549497057 222.20288867196987 H 0.0 **** 0.06
29336 C 89.62215373182616 131.76128570781412 90.77262293121919 C 0.0 **** -0.24
29337 H 88.88125567773247 131.87033297285552 89.98001499176067 H 0.0 **** 0.06
29338 H 89.21937693175582 131.12312178547126 91.55924306067763 H 0.0 **** 0.06
29339 H 89.8590343436824 132.74129365861086 91.18559212028322 H 0.0 **** 0.06
29340 H 90.52659696023042 131.3100662934121 90.36503729333594 H 0.0 **** 0.06
29341 C 168.12601629364175 11.58570135713768 113.0874493226676 C 0.0 **** -0.24
29342 H 169.1983320483877 11.636280244154136 112.89554236991441 H 0.0 **** 0.06
29343 H 167.7181695655835 10.68380846215203 112.63050203270646 H 0.0 **** 0.06
29344 H 167.6396922380738 12.462227329467481 112.66100625748896 H 0.0 **** 0.06
29345 H 167.95086099485204 11.559576241429369 114.16322424060078 H 0.0 **** 0.06
29346 C 218.45419766702977 90.92530762229927 18.999415524701092 C 0.0 **** -0.24
29347 H 217.55087852517468 91.5289692896639 18.91520933526988 H 0.0 **** 0.06
29348 H 219.20056969023307 91.46740345268765 19.58030147330784 H 0.0 **** 0.06
29349 H 218.84808291788028 90.71954289552747 18.004138249248115 H 0.0 **** 0.06
29350 H 218.2172595348311 89.98531485131798 19.498013040978492 H 0.0 **** 0.06
29351 C 176.64765668116806 149.26556523635358 2.1308040673117006 C 0.0 **** -0.24
29352 H 176.69503594392745 148.19396633832739 2.322127268249531 H 0.0 **** 0.06
29353 H 177.38143076781074 149.77921661659323 2.7524626749340797 H 0.0 **** 0.06
29354 H 175.64880721184238 149.63320089309482 2.3678786123447253 H 0.0 **** 0.06
29355 H 176.86447942643386 149.4566597297293 1.0791276080762486 H 0.0 **** 0.06
29356 C 239.88138626422148 69.04475422297958 81.36609469044996 C 0.0 **** -0.24
29357 H 239.93213028106328 69.48799156720088 82.36040765250141 H 0.0 **** 0.06
29358 H 238.84670691977715 68.78807874322487 81.13569951866279 H 0.0 **** 0.06
29359 H 240.49367581596437 68.14398393688302 81.33867288899071 H 0.0 **** 0.06
29360 H 240.25160075138302 69.75898655802666 80.63131651697216 H 0.0 **** 0.06
29361 C 175.33062827011923 217.43649173970027 182.20728728470482 C 0.0 **** -0.24
29362 H 175.4951390274777 217.8514115536284 183.20141017546533 H 0.0 **** 0.06
29363 H 174.2884330104491 217.1311900167313 182.10952494094462 H 0.0 **** 0.06
29364 H 175.97871108726082 216.57315347394155 182.06145088409914 H 0.0 **** 0.06
29365 H 175.56008983068398 218.19309307445963 181.455938899255 H 0.0 **** 0.06
29366 C 227.82709226853257 73.75831836420761 45.900949010115 C 0.0 **** -0.24
29367 H 228.30837681930217 73.14219889479776 46.660013923668686 H 0.0 **** 0.06
29368 H 228.13529640990402 73.42027359722303 44.91000121008935 H 0.0 **** 0.06
29369 H 228.12039396239075 74.79882407027046 46.037193469416735 H 0.0 **** 0.06
29370 H 226.74478770487403 73.6700377942561 45.99517183664531 H 0.0 **** 0.06
29371 C 105.17260029332584 36.135227335033804 83.96372381990017 C 0.0 **** -0.24
29372 H 106.15784281390515 36.272895808487036 83.51910586176805 H 0.0 **** 0.06
29373 H 105.00706722057001 35.0758591277383 84.15861704143256 H 0.0 **** 0.06
29374 H 104.41033703567007 36.50242928081926 83.2766728579397 H 0.0 **** 0.06
29375 H 105.11560183741199 36.690951115490364 84.89995500386067 H 0.0 **** 0.06
29376 C 127.30246416205551 121.87879533197679 99.56027976477722 C 0.0 **** -0.24
29377 H 127.8013245913925 122.76692404245372 99.94803772231171 H 0.0 **** 0.06
29378 H 126.37862683333702 121.71101164647095 100.1137088859196 H 0.0 **** 0.06
29379 H 127.95806687890985 121.01526513762659 99.67654781310631 H 0.0 **** 0.06
29380 H 127.07413923952242 122.02217650225177 98.50520530432436 H 0.0 **** 0.06
29381 C 4.732010650310684 218.70325843053268 55.22454882161247 C 0.0 **** -0.24
29382 H 4.053779133955828 218.13947900668586 54.584633723287226 H 0.0 **** 0.06
29383 H 5.187809303545237 219.50910878437284 54.64777383891206 H 0.0 **** 0.06
29384 H 5.510695491556419 218.0407756895949 55.600822780976046 H 0.0 **** 0.06
29385 H 4.17601411350455 219.12388244677743 56.0612380337011 H 0.0 **** 0.06
29386 C 144.41000632260838 139.32422006646715 124.7335291397388 C 0.0 **** -0.24
29387 H 144.367228293451 138.51226779436786 125.4595808724136 H 0.0 **** 0.06
29388 H 144.63184185858282 140.25978073182654 125.24859498191384 H 0.0 **** 0.06
29389 H 143.4495242533337 139.40860180450653 124.22562119413382 H 0.0 **** 0.06
29390 H 145.1908549651372 139.1171344249937 124.00200777982698 H 0.0 **** 0.06
29391 C 4.766476653433045 110.31270661430614 45.74838407415433 C 0.0 **** -0.24
29392 H 4.328561744137886 109.98048326386288 46.689891244236605 H 0.0 **** 0.06
29393 H 5.843874279875564 110.14606439026394 45.77018549136723 H 0.0 **** 0.06
29394 H 4.5644270545287355 111.37392878817349 45.608269791619975 H 0.0 **** 0.06
29395 H 4.32801363035982 109.74755317928782 44.9248475792394 H 0.0 **** 0.06
29396 C 160.23920246184412 124.95368882833287 202.68793234341618 C 0.0 **** -0.24
29397 H 161.3070368620613 125.09819988251277 202.52348533401312 H 0.0 **** 0.06
29398 H 159.8193891872591 125.84573185634073 203.15361960648272 H 0.0 **** 0.06
29399 H 160.0852745328573 124.0956758162431 203.34199077247973 H 0.0 **** 0.06
29400 H 159.74608788334606 124.77616177299004 201.73275240441785 H 0.0 **** 0.06
29401 C 220.67002860433945 96.63246592675435 155.66955040884528 C 0.0 **** -0.24
29402 H 221.64508265512598 96.60271118827791 155.18320400648952 H 0.0 **** 0.06
29403 H 219.90747529810517 96.89767402061727 154.93712792643407 H 0.0 **** 0.06
29404 H 220.6837395347227 97.37641314362568 156.46554231184118 H 0.0 **** 0.06
29405 H 220.44454077008328 95.652838339879 156.09113385029053 H 0.0 **** 0.06
29406 C 208.96459875731523 95.61499205571425 135.91474391967378 C 0.0 **** -0.24
29407 H 208.72301286620618 96.06107644228993 136.8786046614699 H 0.0 **** 0.06
29408 H 208.0441941519825 95.33142755554047 135.4044223498776 H 0.0 **** 0.06
29409 H 209.58226569066304 94.72973186447561 136.06862871381244 H 0.0 **** 0.06
29410 H 209.5092025132074 96.33679472443501 135.3062989981075 H 0.0 **** 0.06
29411 C 170.5647884238264 35.90506412984395 242.21993615451987 C 0.0 **** -0.24
29412 H 169.77004006034505 35.51342753531998 241.58592560678963 H 0.0 **** 0.06
29413 H 170.1923854662285 36.02407788337406 243.23718161563477 H 0.0 **** 0.06
29414 H 170.89175701537792 36.87178383766033 241.8369934490243 H 0.0 **** 0.06
29415 H 171.40497115335418 35.21096726302146 242.21964394663087 H 0.0 **** 0.06
29416 C 71.21221199867841 100.02483587848258 49.45017173052034 C 0.0 **** -0.24
29417 H 72.01973272824222 100.55502319753751 49.95641995072606 H 0.0 **** 0.06
29418 H 70.73060498422294 100.69429099361002 48.73631872248512 H 0.0 **** 0.06
29419 H 70.48108744068506 99.69017937464727 50.186484490125906 H 0.0 **** 0.06
29420 H 71.61937735273628 99.16199845999637 48.923064973899216 H 0.0 **** 0.06
29421 C 61.1024388655737 95.35597738091539 81.1287493382919 C 0.0 **** -0.24
29422 H 61.3379727465485 94.53218400386433 80.45534245765546 H 0.0 **** 0.06
29423 H 60.02548855580241 95.52631788747996 81.13245318141293 H 0.0 **** 0.06
29424 H 61.61257430650605 96.25854037234805 80.78953927775873 H 0.0 **** 0.06
29425 H 61.43464040840976 95.10863512615387 82.13664888990189 H 0.0 **** 0.06
29426 C 57.82934717886505 225.52594361333047 38.88458310359481 C 0.0 **** -0.24
29427 H 57.48957772758715 225.8406100023629 39.87140748228559 H 0.0 **** 0.06
29428 H 57.02614725778548 225.66669174280923 38.16208437791862 H 0.0 **** 0.06
29429 H 58.11095458430526 224.4733169467192 38.91567877602449 H 0.0 **** 0.06
29430 H 58.692744657747255 226.1236148104728 38.58996552792743 H 0.0 **** 0.06
29431 C 73.07775038696803 234.84852181823157 106.4243952180158 C 0.0 **** -0.24
29432 H 72.29688903600405 234.92831858557568 107.17970547279123 H 0.0 **** 0.06
29433 H 73.58030142288726 235.810854902717 106.31775527018647 H 0.0 **** 0.06
29434 H 72.63348412809034 234.5630820655685 105.47067449837098 H 0.0 **** 0.06
29435 H 73.80219497297924 234.09249008648175 106.72840778107806 H 0.0 **** 0.06
29436 C 248.56389265363 82.8973313356899 248.2762876431985 C 0.0 **** -0.24
29437 H 249.07533788901281 81.94173923430458 248.39503141413513 H 0.0 **** 0.06
29438 H 248.15296399146314 83.21168705862209 249.23546629144772 H 0.0 **** 0.06
29439 H 247.7550351042275 82.78838832530442 247.55341527564048 H 0.0 **** 0.06
29440 H 249.27115830438035 83.64570069635795 247.91998558052697 H 0.0 **** 0.06
29441 C 27.479762471265488 85.75127582720233 211.14202510588254 C 0.0 **** -0.24
29442 H 27.479157784489203 86.83732960028405 211.0503441177177 H 0.0 **** 0.06
29443 H 26.692277640177167 85.33224336741628 210.51500595544698 H 0.0 **** 0.06
29444 H 27.302825890784618 85.47461855738726 212.18184998543336 H 0.0 **** 0.06
29445 H 28.446010086230032 85.35983663434732 210.82243398798173 H 0.0 **** 0.06
29446 C 198.78254697517917 58.34389222391408 24.401919378941557 C 0.0 **** -0.24
29447 H 198.58220048565698 58.47980177541123 23.339854205659805 H 0.0 **** 0.06
29448 H 197.95298122465368 57.80490707117471 24.86119081769914 H 0.0 **** 0.06
29449 H 198.89135949649094 59.317507799298966 24.87834051869484 H 0.0 **** 0.06
29450 H 199.7015988733439 57.772201701215835 24.52898675954667 H 0.0 **** 0.06
29451 C 163.35247803620274 159.76727548760022 171.61877282875886 C 0.0 **** -0.24
29452 H 163.18714292927896 159.12444602749872 170.75558621343177 H 0.0 **** 0.06
29453 H 162.4166715278769 159.89162624865463 172.16361467346024 H 0.0 **** 0.06
29454 H 163.7108571443904 160.74016216403652 171.28414992587818 H 0.0 **** 0.06
29455 H 164.09589991979396 159.31180398653927 172.27384625591105 H 0.0 **** 0.06
29456 C 135.09877408388286 155.71897247786552 16.407736605152778 C 0.0 **** -0.24
29457 H 135.22810173730045 155.3836668890405 17.43633083032364 H 0.0 **** 0.06
29458 H 134.06118258164466 155.57287787186922 16.105852821072332 H 0.0 **** 0.06
29459 H 135.75198293267155 155.14208472688134 15.752832570664438 H 0.0 **** 0.06
29460 H 135.35245790303355 156.77586300982117 16.334849853137953 H 0.0 **** 0.06
29461 C 20.717352833522767 4.623904449397855 159.4231517140911 C 0.0 **** -0.24
29462 H 20.154392894305204 5.389190085343884 158.88826800991706 H 0.0 **** 0.06
29463 H 21.77409873494109 4.705823865898523 159.16728673846376 H 0.0 **** 0.06
29464 H 20.34896092479775 3.6381232498355303 159.14118117246963 H 0.0 **** 0.06
29465 H 20.591398139842298 4.764634080825232 160.49689477451693 H 0.0 **** 0.06
29466 C 172.73787566421998 17.581695808582623 12.72405153772101 C 0.0 **** -0.24
29467 H 171.6562563517922 17.53917781700514 12.592820975419983 H 0.0 **** 0.06
29468 H 172.96795115747108 17.84083430542384 13.757185154241313 H 0.0 **** 0.06
29469 H 173.15498304423835 18.335732094758413 12.057639302225624 H 0.0 **** 0.06
29470 H 173.16933833921271 16.608777057671702 12.488359715608993 H 0.0 **** 0.06
29471 C 87.64613143060703 222.80195015525368 107.20886858372495 C 0.0 **** -0.24
29472 H 86.5916512007633 222.78663027901086 107.48457370887638 H 0.0 **** 0.06
29473 H 87.81086038872724 222.12965787585455 106.36692973249262 H 0.0 **** 0.06
29474 H 88.2481017249267 222.47575733805343 108.05682411136598 H 0.0 **** 0.06
29475 H 87.93333429860337 223.814953593537 106.92729956174912 H 0.0 **** 0.06
29476 C 24.128596096869757 189.01986426563383 23.897231434632744 C 0.0 **** -0.24
29477 H 23.55280027119548 189.40155972719842 23.053459948193876 H 0.0 **** 0.06
29478 H 24.58378743709443 188.0679285468701 23.625143593190074 H 0.0 **** 0.06
29479 H 23.46729541058812 188.8752766455757 24.752027550249494 H 0.0 **** 0.06
29480 H 24.90784861909296 189.73566868950843 24.158195222592298 H 0.0 **** 0.06
29481 C 72.02602396452991 1.5737761163026391 242.64298290198468 C 0.0 **** -0.24
29482 H 72.29498724279901 0.5232606921126433 242.76151005391398 H 0.0 **** 0.06
29483 H 72.33222987522672 2.1288725826579196 243.52949202169486 H 0.0 **** 0.06
29484 H 70.94764788399081 1.6595334154517616 242.51367987582043 H 0.0 **** 0.06
29485 H 72.53090368051147 1.9801374370570102 241.7666932714243 H 0.0 **** 0.06
29486 C 47.195448805950875 24.91379838364911 54.06544071116028 C 0.0 **** -0.24
29487 H 46.19363141764924 24.485480519755754 54.035720418386575 H 0.0 **** 0.06
29488 H 47.14065190524926 25.943346013727847 54.41922955562384 H 0.0 **** 0.06
29489 H 47.627160967218856 24.89650267577626 53.064110071770074 H 0.0 **** 0.06
29490 H 47.8199163938836 24.329352497732557 54.741106165879614 H 0.0 **** 0.06
29491 C 221.9206108303685 101.15757837744658 129.86754159440588 C 0.0 **** -0.24
29492 H 221.27356114966074 101.70011390756707 130.5559386213314 H 0.0 **** 0.06
29493 H 222.88244887806172 100.96883737844158 130.34448705839918 H 0.0 **** 0.06
29494 H 222.0719579962709 101.7533322243751 128.96651164279945 H 0.0 **** 0.06
29495 H 221.453907623178 100.20997628701284 129.60101776631498 H 0.0 **** 0.06
29496 C 186.40178857418834 125.57640130103178 237.76676086830676 C 0.0 **** -0.24
29497 H 185.87593899873195 125.90513059013358 236.87033583068347 H 0.0 **** 0.06
29498 H 185.74610524742286 125.68374605347381 238.63156492711224 H 0.0 **** 0.06
29499 H 187.2934190297584 126.18683272782636 237.9085429875671 H 0.0 **** 0.06
29500 H 186.6895845636489 124.53109524418028 237.65624715360048 H 0.0 **** 0.06
29501 C 75.3840730195873 29.13918907161846 140.18198518028723 C 0.0 **** -0.24
29502 H 74.84053255185435 29.5213029990025 141.0450670179467 H 0.0 **** 0.06
29503 H 74.71746766842824 29.10048337289315 139.32071824184294 H 0.0 **** 0.06
29504 H 75.75413206198138 28.136798441257127 140.4012177390601 H 0.0 **** 0.06
29505 H 76.2251910783452 29.796341558145016 139.9617044791288 H 0.0 **** 0.06
29506 C 159.41355019690076 129.4440219203211 100.83724745080502 C 0.0 **** -0.24
29507 H 159.77216111751585 128.74575438944098 101.59339573679173 H 0.0 **** 0.06
29508 H 158.36103001283834 129.24708121099076 100.63217138335173 H 0.0 **** 0.06
29509 H 159.99222680525423 129.318779896884 99.922715124387 H 0.0 **** 0.06
29510 H 159.52744050330892 130.46444744983452 101.20249572448617 H 0.0 **** 0.06
29511 C 168.16061915422117 56.48365651528073 88.32895844315979 C 0.0 **** -0.24
29512 H 167.07895175394557 56.348573622578414 88.34298768772521 H 0.0 **** 0.06
29513 H 168.44751011130154 57.01123517826571 87.41883157800697 H 0.0 **** 0.06
29514 H 168.64855041143727 55.508631003789105 88.35470571488733 H 0.0 **** 0.06
29515 H 168.4654429122802 57.06490644769107 89.19878345686269 H 0.0 **** 0.06
29516 C 15.442655536597528 211.58940599468372 214.20108935954477 C 0.0 **** -0.24
29517 H 15.090642817923793 211.39948172330742 213.18658583722987 H 0.0 **** 0.06
29518 H 16.382405626761027 212.14036496237298 214.1623782007826 H 0.0 **** 0.06
29519 H 15.597559056906704 210.6406629778804 214.71453278672408 H 0.0 **** 0.06
29520 H 14.698262876806353 212.17704712532344 214.73914980870495 H 0.0 **** 0.06
29521 C 109.7941754726416 223.48768022631674 107.95948679244415 C 0.0 **** -0.24
29522 H 110.06723074133734 222.49894691193228 107.5911610948171 H 0.0 **** 0.06
29523 H 110.26084444937837 223.65436859904096 108.93058906640499 H 0.0 **** 0.06
29524 H 108.71116894638413 223.55172262071324 108.06012970288282 H 0.0 **** 0.06
29525 H 110.13931527720408 224.24456398383052 107.25492801927862 H 0.0 **** 0.06
29526 C 118.6470733037464 62.428622231305866 101.67874117493756 C 0.0 **** -0.24
29527 H 118.30426186754326 63.35809366162448 102.13275520914189 H 0.0 **** 0.06
29528 H 118.89984239222343 61.713070434306445 102.461605141024 H 0.0 **** 0.06
29529 H 119.52734594201661 62.62627726766894 101.06763223936153 H 0.0 **** 0.06
29530 H 117.85464058381115 62.01743132446731 101.05292650820016 H 0.0 **** 0.06
29531 C 174.85133629453043 51.323524337330994 187.5899820265172 C 0.0 **** -0.24
29532 H 174.2728745647352 51.55322232564234 188.48509958045486 H 0.0 **** 0.06
29533 H 174.4699137848947 51.907408575215854 186.7512617799413 H 0.0 **** 0.06
29534 H 174.76420213876295 50.26173273769123 187.36410864044603 H 0.0 **** 0.06
29535 H 175.89856536739615 51.57459888263871 187.76185529971923 H 0.0 **** 0.06
29536 C 74.09774709574157 64.73579089501294 55.37722535977235 C 0.0 **** -0.24
29537 H 74.54667620647587 65.65873054924285 55.74465238616236 H 0.0 **** 0.06
29538 H 73.55676983021525 64.2480227128685 56.18863054585481 H 0.0 **** 0.06
29539 H 74.88113422710137 64.07203063765385 55.011268404449766 H 0.0 **** 0.06
29540 H 73.40633836110999 64.96449034457856 54.56658235169331 H 0.0 **** 0.06
29541 C 145.1460754338165 48.84085832665545 9.1337489959935 C 0.0 **** -0.24
29542 H 145.58670294841522 47.88377260405875 9.413904109082097 H 0.0 **** 0.06
29543 H 145.7374872039017 49.29448371593128 8.338472507879061 H 0.0 **** 0.06
29544 H 145.13305632967908 49.50209334271264 10.000395018982687 H 0.0 **** 0.06
29545 H 144.12616342674332 48.68164605693072 8.782595856185054 H 0.0 **** 0.06
29546 C 195.13014868653073 75.04003063168301 192.4867956443442 C 0.0 **** -0.24
29547 H 194.78825649344097 74.67395245797888 191.518061893395 H 0.0 **** 0.06
29548 H 194.35364697608082 74.87267813024889 193.23290139987637 H 0.0 **** 0.06
29549 H 195.34353487576394 76.10630805380293 192.41594117008125 H 0.0 **** 0.06
29550 H 196.03567992830872 74.50616338349383 192.77750600581763 H 0.0 **** 0.06
29551 C 102.10788569139706 36.591696153464994 16.807464933345358 C 0.0 **** -0.24
29552 H 102.51839126123815 35.604266136552866 17.016942142547094 H 0.0 **** 0.06
29553 H 101.69667044271486 36.60758932192536 15.797420375167945 H 0.0 **** 0.06
29554 H 102.89717109512827 37.33801741498522 16.890414815158834 H 0.0 **** 0.06
29555 H 101.31794383948753 36.81552261141172 17.523985100950426 H 0.0 **** 0.06
29556 C 22.91696354189483 95.9942718372593 179.6362788497747 C 0.0 **** -0.24
29557 H 23.18856211620735 94.99998555004208 179.99052531791546 H 0.0 **** 0.06
29558 H 23.066101907114813 96.04817213666934 178.55771541717263 H 0.0 **** 0.06
29559 H 23.543310573935543 96.73852318120561 180.12808358891834 H 0.0 **** 0.06
29560 H 21.869680785080817 96.18900895714023 179.86870487399648 H 0.0 **** 0.06
29561 C 141.8204012779486 147.41059353732396 197.2232758110597 C 0.0 **** -0.24
29562 H 142.71106282291353 147.2160704788694 197.82125186981892 H 0.0 **** 0.06
29563 H 141.14412693198153 146.55759961094768 197.29147371538082 H 0.0 **** 0.06
29564 H 142.10830760154187 147.56323488924963 196.18280325395145 H 0.0 **** 0.06
29565 H 141.31969546180608 148.30313061130093 197.5976764260279 H 0.0 **** 0.06
29566 C 188.69226577132963 129.32216677915855 107.06613550215394 C 0.0 **** -0.24
29567 H 187.6814460088877 128.98122369689585 107.29144151180418 H 0.0 **** 0.06
29568 H 188.67000115092569 130.38198110220603 106.8092980601123 H 0.0 **** 0.06
29569 H 189.08870797330349 128.7527859293701 106.2256709913467 H 0.0 **** 0.06
29570 H 189.32760356642746 129.17351228199263 107.93890597002581 H 0.0 **** 0.06
29571 C 160.10250917703164 182.73388907560155 164.29495455129717 C 0.0 **** -0.24
29572 H 159.43277312187092 181.88542086484375 164.15686807455324 H 0.0 **** 0.06
29573 H 160.47218224340796 182.74129233798175 165.32127545807788 H 0.0 **** 0.06
29574 H 159.56233177100185 183.66013261288188 164.0971216519679 H 0.0 **** 0.06
29575 H 160.94286748257298 182.64891616820535 163.60594722704982 H 0.0 **** 0.06
29576 C 211.68162891198625 240.792232883023 14.320144753034896 C 0.0 **** -0.24
29577 H 211.57037665706983 240.30548011537473 15.289724177604427 H 0.0 **** 0.06
29578 H 212.68512586712595 241.20895381570398 14.235876781399838 H 0.0 **** 0.06
29579 H 210.9463738145193 241.59271434592665 14.23077501279468 H 0.0 **** 0.06
29580 H 211.52201889163646 240.06226491785606 13.527349717659575 H 0.0 **** 0.06
29581 C 161.21662821323218 82.68908274537998 180.93459285428725 C 0.0 **** -0.24
29582 H 160.94826266505973 81.64935722365908 180.75250956950006 H 0.0 **** 0.06
29583 H 161.72103169772362 83.09350062293447 180.05591663795357 H 0.0 **** 0.06
29584 H 161.88236829766421 82.74788969800463 181.79540261669894 H 0.0 **** 0.06
29585 H 160.31443088735548 83.26782817645062 181.1336563728862 H 0.0 **** 0.06
29586 C 115.01249272363529 193.04833712893577 213.74472504970052 C 0.0 **** -0.24
29587 H 115.1505603496822 193.7181750517306 214.59415018956355 H 0.0 **** 0.06
29588 H 115.80141611758663 192.29585481403748 213.74337655187662 H 0.0 **** 0.06
29589 H 115.05485176873268 193.62208713337532 212.81864016279062 H 0.0 **** 0.06
29590 H 114.04231365916311 192.55846709056152 213.82440247571972 H 0.0 **** 0.06
29591 C 67.19849257404007 173.2195679985649 224.20959677799556 C 0.0 **** -0.24
29592 H 66.8124918666515 172.792204235755 225.1354397691054 H 0.0 **** 0.06
29593 H 68.01814701585283 173.90058449762063 224.43926544289212 H 0.0 **** 0.06
29594 H 66.40385611980176 173.7659938936595 223.7027770821901 H 0.0 **** 0.06
29595 H 67.56013289278724 172.4198947993267 223.56362571219785 H 0.0 **** 0.06
29596 C 118.44289175814268 96.86051047826538 180.96666688045724 C 0.0 **** -0.24
29597 H 118.03790038556173 96.05717491470699 181.58284992039978 H 0.0 **** 0.06
29598 H 119.46873394018317 96.61988042673198 180.68498873175452 H 0.0 **** 0.06
29599 H 118.43091021650505 97.79261620830692 181.53204986994388 H 0.0 **** 0.06
29600 H 117.83542366173069 96.9715748355423 180.06910363564697 H 0.0 **** 0.06
29601 C 197.7383670391186 248.7714094388113 74.74886385415547 C 0.0 **** -0.24
29602 H 197.20834223726263 249.7235066981885 74.78570260659959 H 0.0 **** 0.06
29603 H 197.3729413176187 248.1846227663086 73.90574166965095 H 0.0 **** 0.06
29604 H 197.56578620868328 248.2243028979956 75.67548775601708 H 0.0 **** 0.06
29605 H 198.80565206531793 248.95552459806063 74.62877703823179 H 0.0 **** 0.06
29606 C 245.8195695201253 184.98978427484292 64.77814159366989 C 0.0 **** -0.24
29607 H 246.72570224360274 184.8968951207293 65.37709707194307 H 0.0 **** 0.06
29608 H 245.8653208150985 184.29334885134023 63.940705571044305 H 0.0 **** 0.06
29609 H 245.7379711154851 186.0086570069481 64.39974679504198 H 0.0 **** 0.06
29610 H 244.95155314277926 184.75940166444292 65.39540975674313 H 0.0 **** 0.06
29611 C 248.58818205432738 1.4345521677149407 67.10944716904817 C 0.0 **** -0.24
29612 H 247.80121308906064 2.189152109530255 67.08548143550507 H 0.0 **** 0.06
29613 H 249.46544379689766 1.8087675531178604 66.5828199400776 H 0.0 **** 0.06
29614 H 248.23253308255158 0.5247975460019916 66.62532950756136 H 0.0 **** 0.06
29615 H 248.850569558558 1.216195058652275 68.14545853799214 H 0.0 **** 0.06
29616 C 155.9117809771506 125.35182781167231 199.1952811762762 C 0.0 **** -0.24
29617 H 155.94500752001557 124.44752387653608 199.8026829839106 H 0.0 **** 0.06
29618 H 155.11848403279376 126.00529733071386 199.55931156263455 H 0.0 **** 0.06
29619 H 155.71412607000212 125.08508678728825 198.15680809625832 H 0.0 **** 0.06
29620 H 156.86810770240623 125.86958718887001 199.26222130876755 H 0.0 **** 0.06
29621 C 245.17846202258323 133.6261066080008 51.37789535419877 C 0.0 **** -0.24
29622 H 246.2093372842334 133.8315277321497 51.08998057037387 H 0.0 **** 0.06
29623 H 244.94040991845148 132.58512453135364 51.15679562210036 H 0.0 **** 0.06
29624 H 244.50876338723887 134.27910421452378 50.82010739039809 H 0.0 **** 0.06
29625 H 245.0578302856988 133.8067538496283 52.4464626829857 H 0.0 **** 0.06
29626 C 79.82010438540715 78.48845847959504 18.327877202148187 C 0.0 **** -0.24
29627 H 79.5798360109585 79.54646494595298 18.22723433853693 H 0.0 **** 0.06
29628 H 80.89478568934047 78.37121962409248 18.47068379966467 H 0.0 **** 0.06
29629 H 79.51265897209095 77.95930498327706 17.42658565550684 H 0.0 **** 0.06
29630 H 79.29216586765295 78.07659661365363 19.189003970574078 H 0.0 **** 0.06
29631 C 165.07666872569635 108.7281037110117 48.85180457364392 C 0.0 **** -0.24
29632 H 164.25967177233684 109.40499564499518 48.60290931008795 H 0.0 **** 0.06
29633 H 164.96683662490418 108.3896869218851 49.8821445934303 H 0.0 **** 0.06
29634 H 166.02748682023537 109.24834384003535 48.73869965592124 H 0.0 **** 0.06
29635 H 165.05137656645243 107.86759083465788 48.18171242680346 H 0.0 **** 0.06
29636 C 167.5114509684939 243.7015314095306 35.53420530247135 C 0.0 **** -0.24
29637 H 166.76156330893608 243.01146243363075 35.14824821984686 H 0.0 **** 0.06
29638 H 167.5086445945512 243.6686913777863 36.62407053878573 H 0.0 **** 0.06
29639 H 167.27970098864873 244.71350350452764 35.20013643613876 H 0.0 **** 0.06
29640 H 168.49497229317805 243.41260886420056 35.163303511914734 H 0.0 **** 0.06
29641 C 61.47733668047738 93.07906891995435 164.93868531947123 C 0.0 **** -0.24
29642 H 60.41781467061534 93.04840988817693 164.68680103564424 H 0.0 **** 0.06
29643 H 61.75034754090299 94.09196500157367 165.23599017074176 H 0.0 **** 0.06
29644 H 62.06560973013973 92.78518697400182 164.06928507116825 H 0.0 **** 0.06
29645 H 61.675737324654875 92.39241151597969 165.7612188181138 H 0.0 **** 0.06
29646 C 161.1760103166248 218.57490893764088 88.66853844556209 C 0.0 **** -0.24
29647 H 160.2311643634351 218.3844188879022 88.16049393445047 H 0.0 **** 0.06
29648 H 161.00460359863857 219.2332306581838 89.52014505507188 H 0.0 **** 0.06
29649 H 161.87118157130095 219.0494563785553 87.97595255027616 H 0.0 **** 0.06
29650 H 161.59736351348198 217.63167420589778 89.01712172054516 H 0.0 **** 0.06
29651 C 237.8516720408908 220.44011894065682 199.09816177628446 C 0.0 **** -0.24
29652 H 238.38534832832627 220.9985399248079 198.32902967139285 H 0.0 **** 0.06
29653 H 237.52927711624687 221.12187709953855 199.88450704674563 H 0.0 **** 0.06
29654 H 238.51284044510862 219.68354041149814 199.5209570477333 H 0.0 **** 0.06
29655 H 236.98064471608018 219.9565289420113 198.65642805836265 H 0.0 **** 0.06
29656 C 188.74121222704179 189.29686189354467 82.55959284891884 C 0.0 **** -0.24
29657 H 189.69358113710356 188.85566433969805 82.26502239910374 H 0.0 **** 0.06
29658 H 188.84481325206082 189.7656884196756 83.53827261647865 H 0.0 **** 0.06
29659 H 187.97966077018054 188.51916890585505 82.6073375263359 H 0.0 **** 0.06
29660 H 188.44759313726985 190.04828172309607 81.82615052293554 H 0.0 **** 0.06
29661 C 23.053272446283273 174.50074601326978 144.68076838427268 C 0.0 **** -0.24
29662 H 24.016022337136093 175.0105400252756 144.63559882591898 H 0.0 **** 0.06
29663 H 22.74173605838709 174.2227365588402 143.6734678332737 H 0.0 **** 0.06
29664 H 22.311017157815712 175.16718973567504 145.11997268704252 H 0.0 **** 0.06
29665 H 23.144784587625367 173.60485272817542 145.29346268171804 H 0.0 **** 0.06
29666 C 241.58505242627456 27.113747518615156 92.71627366710894 C 0.0 **** -0.24
29667 H 240.7377649316217 27.58678003007536 93.21314056854985 H 0.0 **** 0.06
29668 H 242.51231648119614 27.469610085710528 93.16356413144777 H 0.0 **** 0.06
29669 H 241.57123047470827 27.36733049249915 91.6555469289703 H 0.0 **** 0.06
29670 H 241.51537718267633 26.032343446208927 92.83217085411869 H 0.0 **** 0.06
29671 C 171.39202610018262 149.39143800604242 70.02165345810383 C 0.0 **** -0.24
29672 H 171.19594128835357 149.13604469604076 68.98002608793584 H 0.0 **** 0.06
29673 H 170.769528627953 148.7737604198501 70.66970274198772 H 0.0 **** 0.06
29674 H 171.1591006516973 150.4434483296853 70.18786894585375 H 0.0 **** 0.06
29675 H 172.44262014227124 149.2114903261118 70.24794431697885 H 0.0 **** 0.06
29676 C 131.2787310820149 32.56023017532206 197.01495797725667 C 0.0 **** -0.24
29677 H 131.72597531545796 31.674101639224062 197.4665489346104 H 0.0 **** 0.06
29678 H 130.66141297630404 33.07173734722258 197.75395685796994 H 0.0 **** 0.06
29679 H 130.6612770406383 32.26339586873766 196.1674200924596 H 0.0 **** 0.06
29680 H 132.06700489223428 33.230323963954646 196.6735150497784 H 0.0 **** 0.06
29681 C 227.88230980523127 114.05904633720283 61.87337807638443 C 0.0 **** -0.24
29682 H 227.28342275354515 114.09665910898951 62.78390273713444 H 0.0 **** 0.06
29683 H 227.25904158729065 113.72992659950836 61.042255046728684 H 0.0 **** 0.06
29684 H 228.706869934505 113.35878815581378 62.01014667686292 H 0.0 **** 0.06
29685 H 228.28048998540322 115.05162290441183 61.65944377516877 H 0.0 **** 0.06
29686 C 141.5093956500652 213.92187414422622 199.56187781363087 C 0.0 **** -0.24
29687 H 140.57572849263326 213.3658385562517 199.64952847172302 H 0.0 **** 0.06
29688 H 142.20738224576033 213.36385714772166 198.93855101075968 H 0.0 **** 0.06
29689 H 141.94113444653223 214.0641568436397 200.55331052870963 H 0.0 **** 0.06
29690 H 141.3126992998692 214.89313791119991 199.1093363265716 H 0.0 **** 0.06
29691 C 235.98141594644588 111.43057560319136 156.4139694298745 C 0.0 **** -0.24
29692 H 236.9643340856253 111.53669276712148 155.9546779641001 H 0.0 **** 0.06
29693 H 235.3299292774182 110.8622599975115 155.7500876165981 H 0.0 **** 0.06
29694 H 235.5530471122887 112.41816621664674 156.58683497641204 H 0.0 **** 0.06
29695 H 236.07985609969217 110.90665536200422 157.36503551173598 H 0.0 **** 0.06
29696 C 150.82069264606181 131.68147410590615 162.45732553133348 C 0.0 **** -0.24
29697 H 149.7925349768842 131.9007151574824 162.1699534131505 H 0.0 **** 0.06
29698 H 150.83056867113424 130.85189459339432 163.16499980339688 H 0.0 **** 0.06
29699 H 151.2640423109541 132.5625095366517 162.9217673653912 H 0.0 **** 0.06
29700 H 151.39436492704158 131.40982352201115 161.57070968897682 H 0.0 **** 0.06
29701 C 233.17866250368093 196.39570330609135 24.026468948125455 C 0.0 **** -0.24
29702 H 233.46402920817354 197.4417952750389 24.141525517140863 H 0.0 **** 0.06
29703 H 232.57287887504697 196.28198938043934 23.126884089583243 H 0.0 **** 0.06
29704 H 232.60359238368733 196.0782985329475 24.895681307226397 H 0.0 **** 0.06
29705 H 234.0758448670265 195.7827506481494 23.940763557361365 H 0.0 **** 0.06
29706 C 82.50651773538934 133.67720822248177 22.907868335643897 C 0.0 **** -0.24
29707 H 83.4927109845913 133.7146419509476 22.445520894038367 H 0.0 **** 0.06
29708 H 82.35653720570687 134.57053585215894 23.51586272386487 H 0.0 **** 0.06
29709 H 82.43426425666777 132.79187425942135 23.539554790578308 H 0.0 **** 0.06
29710 H 81.74204531512382 133.63310266320056 22.132263935434707 H 0.0 **** 0.06
29711 C 96.65518433388397 129.4363840120233 193.35256636527836 C 0.0 **** -0.24
29712 H 95.75803913481266 129.28815400991928 193.9520585746555 H 0.0 **** 0.06
29713 H 97.04381408014316 130.4412729791409 193.52170141835674 H 0.0 **** 0.06
29714 H 96.41242515012505 129.31439659194078 192.29735282804086 H 0.0 **** 0.06
29715 H 97.40873083690877 128.7024261424715 193.6385787509646 H 0.0 **** 0.06
29716 C 192.24532199478568 228.48185787570654 1.488659635120797 C 0.0 **** -0.24
29717 H 192.539059467213 227.5852434192551 0.940727700043567 H 0.0 **** 0.06
29718 H 192.3409282226472 229.3515520211392 0.8379376362024402 H 0.0 **** 0.06
29719 H 192.8911876218632 228.60422887967184 2.357516060397188 H 0.0 **** 0.06
29720 H 191.21018199078102 228.38425042342863 1.8154003939676215 H 0.0 **** 0.06
29721 C 12.261062867272898 196.884506626546 81.84894630120692 C 0.0 **** -0.24
29722 H 11.43110887104038 196.94030448193445 81.14451423698796 H 0.0 **** 0.06
29723 H 13.162854534080196 197.27767940467973 81.37815490530076 H 0.0 **** 0.06
29724 H 12.424321461041728 195.8460102391848 82.13641882302329 H 0.0 **** 0.06
29725 H 12.026457301992053 197.47506277687674 82.73452985493404 H 0.0 **** 0.06
29726 C 135.56238576289846 26.77779564815549 178.47399767785032 C 0.0 **** -0.24
29727 H 136.40047146434694 27.459222314226196 178.6166427439 H 0.0 **** 0.06
29728 H 134.99639975472306 27.077699642175247 177.59179644998676 H 0.0 **** 0.06
29729 H 134.91456873540955 26.81145618192619 179.35008936180483 H 0.0 **** 0.06
29730 H 135.93749388659663 25.763274517514162 178.33864871484838 H 0.0 **** 0.06
29731 C 218.44157031664565 57.76712812293644 202.1500012176858 C 0.0 **** -0.24
29732 H 218.74240082692376 58.50805110457128 202.89011654653123 H 0.0 **** 0.06
29733 H 217.35362407845318 57.70675982663579 202.11707367417495 H 0.0 **** 0.06
29734 H 218.8522921725747 56.794945668612485 202.42234365036353 H 0.0 **** 0.06
29735 H 218.82018871692463 58.05883657109143 201.17068316336213 H 0.0 **** 0.06
29736 C 225.4112978387334 168.01943314926697 23.04899728873734 C 0.0 **** -0.24
29737 H 224.93187070194145 167.0416481775367 22.983432365450057 H 0.0 **** 0.06
29738 H 226.3738626606862 167.91798670432252 23.550270818212198 H 0.0 **** 0.06
29739 H 224.7750168664282 168.69759796327747 23.616951134464543 H 0.0 **** 0.06
29740 H 225.56279864846024 168.4166141724072 22.04578729120594 H 0.0 **** 0.06
29741 C 179.98703657764338 196.81485117635162 45.145069625836484 C 0.0 **** -0.24
29742 H 179.4521792132538 196.1274959377037 44.489193150753295 H 0.0 **** 0.06
29743 H 180.93604213092004 196.36789420592766 45.44195091450857 H 0.0 **** 0.06
29744 H 179.38492718702594 197.01195990591287 46.031472462998366 H 0.0 **** 0.06
29745 H 180.17356006277078 197.7493994343272 44.61628979554857 H 0.0 **** 0.06
29746 C 91.75114981936031 66.46349327191388 75.76472200906446 C 0.0 **** -0.24
29747 H 91.63338518725871 67.42615853382557 75.26788335562489 H 0.0 **** 0.06
29748 H 92.73811595839902 66.41020330720869 76.2232627164536 H 0.0 **** 0.06
29749 H 91.64513103375603 65.6616320109801 75.03466235693926 H 0.0 **** 0.06
29750 H 90.98613421814272 66.35695246031199 76.53391233393924 H 0.0 **** 0.06
29751 C 113.86547472182704 98.387972028527 136.57879236320358 C 0.0 **** -0.24
29752 H 114.44786682683286 97.52142062619873 136.89359020752332 H 0.0 **** 0.06
29753 H 114.54058905324536 99.20706996083834 136.32748616964557 H 0.0 **** 0.06
29754 H 113.20651116558776 98.69608163286532 137.39003404376703 H 0.0 **** 0.06
29755 H 113.26928867600967 98.12673299772578 135.7043840270827 H 0.0 **** 0.06
29756 C 45.15258824542531 220.66797699719348 4.518187345838015 C 0.0 **** -0.24
29757 H 45.787546693977816 221.52083515925594 4.7596025484671 H 0.0 **** 0.06
29758 H 45.40622925897412 220.2968685806787 3.52515746255888 H 0.0 **** 0.06
29759 H 44.10783000262134 220.97689524716145 4.535107438947421 H 0.0 **** 0.06
29760 H 45.31094062933485 219.878238473722 5.2534513586284675 H 0.0 **** 0.06
29761 C 38.602828786074696 226.60953608782452 127.07045102604215 C 0.0 **** -0.24
29762 H 39.66097739765175 226.39964466874014 126.9185508468251 H 0.0 **** 0.06
29763 H 38.20868307467535 227.13488405013345 126.20105167193896 H 0.0 **** 0.06
29764 H 38.4784548269034 227.22941645712336 127.95795596017498 H 0.0 **** 0.06
29765 H 38.06317916032751 225.67196570760046 127.20413959288109 H 0.0 **** 0.06
29766 C 220.48889430409213 216.20312592925814 180.70010859180155 C 0.0 **** -0.24
29767 H 220.3309722423956 217.21042829323687 181.0855643476251 H 0.0 **** 0.06
29768 H 219.75989943848901 215.52652113749173 181.1438855536589 H 0.0 **** 0.06
29769 H 221.49646575412504 215.87150561500818 180.9548326156712 H 0.0 **** 0.06
29770 H 220.37192344205107 216.20614968406846 179.61602314707122 H 0.0 **** 0.06
29771 C 184.77439665064247 171.48214854234945 188.5308402988345 C 0.0 **** -0.24
29772 H 185.3912063635794 170.7929225051201 187.95446731829742 H 0.0 **** 0.06
29773 H 184.22770668294845 172.13532558581196 187.85025936757575 H 0.0 **** 0.06
29774 H 185.4105203408362 172.083056461103 189.17992648943013 H 0.0 **** 0.06
29775 H 184.0670785222227 170.9165781585229 189.1381258853542 H 0.0 **** 0.06
29776 C 228.33316747864185 127.70713370937182 42.03336733543995 C 0.0 **** -0.24
29777 H 228.22519188813672 128.47170174615448 41.26393471365262 H 0.0 **** 0.06
29778 H 228.6026555136345 126.7588289905288 41.56830289998348 H 0.0 **** 0.06
29779 H 227.39063726605173 127.59574874776436 42.56869130307639 H 0.0 **** 0.06
29780 H 229.11464314760786 128.00504502362875 42.73263066197802 H 0.0 **** 0.06
29781 C 79.82904911795987 92.15932934960571 4.4725460308972345 C 0.0 **** -0.24
29782 H 79.83179878874782 93.11499757982162 3.948020297141099 H 0.0 **** 0.06
29783 H 80.81878209462388 91.97110172051845 4.888588773302487 H 0.0 **** 0.06
29784 H 79.56921703581875 91.3626608685577 3.77576544456106 H 0.0 **** 0.06
29785 H 79.0954931222918 92.19078148942526 5.278292228714193 H 0.0 **** 0.06
29786 C 215.65026860173475 116.94815783748561 153.55608272080514 C 0.0 **** -0.24
29787 H 214.63172980486829 116.60649619732916 153.73911170103773 H 0.0 **** 0.06
29788 H 215.62831113025086 117.97162403735805 153.18126092359282 H 0.0 **** 0.06
29789 H 216.12429040876944 116.30042933469255 152.81768466040882 H 0.0 **** 0.06
29790 H 216.2176137070864 116.91456785198153 154.48634925051678 H 0.0 **** 0.06
29791 C 204.6992461276334 4.54844233357889 158.59368659505634 C 0.0 **** -0.24
29792 H 205.58192934223246 4.380864977070644 157.97584053857207 H 0.0 **** 0.06
29793 H 204.83016649365743 5.460715492330934 159.1744198353053 H 0.0 **** 0.06
29794 H 204.5625401683871 3.703942390130635 159.26931585554092 H 0.0 **** 0.06
29795 H 203.82202888312986 4.646989619132881 157.95460608130298 H 0.0 **** 0.06
29796 C 178.35198204607144 27.97704387543598 243.249088331623 C 0.0 **** -0.24
29797 H 177.94248444556604 28.97049472173798 243.43076302908412 H 0.0 **** 0.06
29798 H 179.27822758546628 27.85699435594742 243.81083282932508 H 0.0 **** 0.06
29799 H 178.5533324709939 27.856943539389405 242.18457272099357 H 0.0 **** 0.06
29800 H 177.63192832395856 27.22414500210016 243.57006262241202 H 0.0 **** 0.06
29801 C 50.588507847785095 57.083116516706866 199.50594081752465 C 0.0 **** -0.24
29802 H 49.519674501894414 57.23466488433402 199.35715259802757 H 0.0 **** 0.06
29803 H 51.118138644569726 57.29467020512635 198.57726120579625 H 0.0 **** 0.06
29804 H 50.77109019661525 56.04987536982111 199.801117013795 H 0.0 **** 0.06
29805 H 50.945128048060795 57.75325560754595 200.28823245247995 H 0.0 **** 0.06
29806 C 124.54828288371118 58.18711218012274 74.88501699129054 C 0.0 **** -0.24
29807 H 123.58763162252879 57.69178797070896 74.74372066584255 H 0.0 **** 0.06
29808 H 124.59620619474407 59.072910056412354 74.25102404554161 H 0.0 **** 0.06
29809 H 125.3528832387675 57.503500700073204 74.61599250896711 H 0.0 **** 0.06
29810 H 124.65474091932438 58.4812026760186 75.9287784715778 H 0.0 **** 0.06
29811 C 246.05097086321922 179.28775299454912 69.97592638539837 C 0.0 **** -0.24
29812 H 246.034278992741 178.4213329253902 70.6365012915727 H 0.0 **** 0.06
29813 H 246.82843698689925 179.1548493268744 69.2235470850658 H 0.0 **** 0.06
29814 H 246.2589543002336 180.18517916202825 70.5589364514199 H 0.0 **** 0.06
29815 H 245.08319119497455 179.3891134720999 69.48558963521867 H 0.0 **** 0.06
29816 C 67.64300428378775 171.6056067357602 218.52243147147857 C 0.0 **** -0.24
29817 H 66.90795815341087 171.6121561181408 217.7175135488995 H 0.0 **** 0.06
29818 H 67.2846551398207 172.22517561328004 219.34490388578382 H 0.0 **** 0.06
29819 H 68.5886876387506 172.00348220686448 218.15311902981932 H 0.0 **** 0.06
29820 H 67.78962154445225 170.58452509821618 218.87303983840755 H 0.0 **** 0.06
29821 C 217.7981525788759 230.6237032217205 221.2500583901284 C 0.0 **** -0.24
29822 H 218.42931190088643 231.5121525912569 221.29259320884398 H 0.0 **** 0.06
29823 H 217.2555659363089 230.51829753166837 222.1898620670146 H 0.0 **** 0.06
29824 H 218.42076733216797 229.74398980224802 221.08919903853206 H 0.0 **** 0.06
29825 H 217.08853384625303 230.72199412919525 220.4295337378003 H 0.0 **** 0.06
29826 C 4.912452522323051 98.54662261083547 225.6207059644414 C 0.0 **** -0.24
29827 H 3.855488945016319 98.32256017180484 225.48038996888747 H 0.0 **** 0.06
29828 H 5.464065170735054 98.27364739539155 224.72111406447772 H 0.0 **** 0.06
29829 H 5.295425378021349 97.97916731931784 226.4686557559903 H 0.0 **** 0.06
29830 H 5.035281740336302 99.6131945123405 225.81197525710277 H 0.0 **** 0.06
29831 C 186.18938397739845 13.226819358636817 9.664808004747243 C 0.0 **** -0.24
29832 H 186.6921813158496 12.808860017081258 8.792474124972784 H 0.0 **** 0.06
29833 H 186.15403213224454 12.477168851221677 10.457070562315351 H 0.0 **** 0.06
29834 H 185.17487992810578 13.517040538006654 9.394477180179322 H 0.0 **** 0.06
29835 H 186.73689871475057 14.10130853766043 10.01583058733543 H 0.0 **** 0.06
29836 C 166.92791422472092 168.24223111384816 80.21709039649565 C 0.0 **** -0.24
29837 H 167.96756610882156 168.52402492380912 80.38457406694172 H 0.0 **** 0.06
29838 H 166.55732732150486 167.6907806119262 81.08138274481956 H 0.0 **** 0.06
29839 H 166.86053048775935 167.61453080109817 79.32878790645398 H 0.0 **** 0.06
29840 H 166.3275207127291 169.14074311508818 80.07370495126932 H 0.0 **** 0.06
29841 C 230.83232032362739 105.55293602421153 202.4797633189638 C 0.0 **** -0.24
29842 H 231.0281172152843 104.66285210296459 203.07735494834313 H 0.0 **** 0.06
29843 H 231.55786878982678 105.61336150420087 201.66873079735015 H 0.0 **** 0.06
29844 H 230.91549285285572 106.43897185972287 203.10921736690725 H 0.0 **** 0.06
29845 H 229.8258613705338 105.49765075666818 202.06355123943771 H 0.0 **** 0.06
29846 C 247.20629439626236 112.00911730589473 240.85613845168382 C 0.0 **** -0.24
29847 H 247.87273289048377 111.47088109416464 240.18270539967853 H 0.0 **** 0.06
29848 H 247.65117470052795 112.04858137090298 241.85108251244054 H 0.0 **** 0.06
29849 H 246.24800803941378 111.49245224861193 240.90717807901012 H 0.0 **** 0.06
29850 H 247.0541740992482 113.02146318083285 240.4843699817652 H 0.0 **** 0.06
29851 C 174.26919721356512 141.57398045090542 19.802978614162583 C 0.0 **** -0.24
29852 H 174.06325968400094 142.08060367820207 20.745237175865512 H 0.0 **** 0.06
29853 H 175.06661490349896 140.84498551905602 19.949849284271522 H 0.0 **** 0.06
29854 H 174.57877174217788 142.30549168926146 19.056811417999597 H 0.0 **** 0.06
29855 H 173.3687479952688 141.0638236771925 19.460790301777692 H 0.0 **** 0.06
29856 C 43.38323463967788 174.08821566051247 139.31565405391558 C 0.0 **** -0.24
29857 H 43.604441545166594 173.16266926831497 138.78498283655978 H 0.0 **** 0.06
29858 H 44.31511994069375 174.55497918722867 139.63601817926246 H 0.0 **** 0.06
29859 H 42.768203526625896 173.86791297978132 140.18809833664255 H 0.0 **** 0.06
29860 H 42.845651058432225 174.76692539461135 138.6543110653667 H 0.0 **** 0.06
29861 C 42.90898113033447 217.09962031103524 61.96983613660191 C 0.0 **** -0.24
29862 H 42.0148616155403 217.5167008424498 61.50493323637926 H 0.0 **** 0.06
29863 H 43.472506346625295 216.5330203524119 61.22861930899117 H 0.0 **** 0.06
29864 H 42.618726190073374 216.4408064242371 62.78869748520242 H 0.0 **** 0.06
29865 H 43.528114949911384 217.90929272108082 62.35597014168155 H 0.0 **** 0.06
29866 C 206.6504690807546 196.77252183008994 64.21158221727609 C 0.0 **** -0.24
29867 H 205.88383524491329 197.2580328874991 64.81637735190068 H 0.0 **** 0.06
29868 H 206.2996925017236 196.6854715401917 63.18327506128986 H 0.0 **** 0.06
29869 H 206.85467083679805 195.77985593807296 64.61160425287073 H 0.0 **** 0.06
29870 H 207.5619943043999 197.36939799844455 64.23525015842182 H 0.0 **** 0.06
29871 C 1.6670556917157313 153.4461141828971 222.92456582680882 C 0.0 **** -0.24
29872 H 2.165396283613177 153.71764671765112 223.8544143587489 H 0.0 **** 0.06
29873 H 2.030353262136245 154.0854273967554 222.1185161499543 H 0.0 **** 0.06
29874 H 0.5910401182423328 153.57857885864377 223.03681627426403 H 0.0 **** 0.06
29875 H 1.8823581868244332 152.40418502277822 222.68803035763926 H 0.0 **** 0.06
29876 C 241.17331910916553 248.45192113843459 164.40479029915397 C 0.0 **** -0.24
29877 H 240.54555841506055 247.63673859548788 164.04658297073064 H 0.0 **** 0.06
29878 H 241.72774932289167 248.87729701764448 163.5684153436519 H 0.0 **** 0.06
29879 H 241.87287921923928 248.07230694731652 165.14962537417716 H 0.0 **** 0.06
29880 H 240.54661647011082 249.22260904358194 164.85495086646827 H 0.0 **** 0.06
29881 C 33.72247792019007 62.38038715292603 161.88559878243152 C 0.0 **** -0.24
29882 H 32.821486398215455 62.61640616728289 161.3198330480745 H 0.0 **** 0.06
29883 H 34.110725456838765 61.41390818139183 161.56471279982176 H 0.0 **** 0.06
29884 H 33.48395025104239 62.34132172134906 162.94931304376118 H 0.0 **** 0.06
29885 H 34.47375974426663 63.15062064902702 161.7106572117252 H 0.0 **** 0.06
29886 C 188.4661638222405 71.7066881989295 219.19000350489196 C 0.0 **** -0.24
29887 H 187.4060233613995 71.9596127741429 219.15421325776364 H 0.0 **** 0.06
29888 H 188.97195421410862 72.14334015452764 218.32879115074775 H 0.0 **** 0.06
29889 H 188.58232364573325 70.62372677814378 219.17015377392724 H 0.0 **** 0.06
29890 H 188.90284497053813 72.10255306004152 220.10761244567215 H 0.0 **** 0.06
29891 C 119.50985283785079 58.69763568551062 99.2355115296418 C 0.0 **** -0.24
29892 H 118.8829755259749 59.55941305489992 99.46719489611391 H 0.0 **** 0.06
29893 H 119.05626343104689 58.126029706276626 98.42590370975296 H 0.0 **** 0.06
29894 H 119.60062109532234 58.06660608193633 100.12062358414161 H 0.0 **** 0.06
29895 H 120.49883584595867 59.039390685965856 98.93024329005695 H 0.0 **** 0.06
29896 C 29.29826102101748 106.13323320021718 91.10421577366208 C 0.0 **** -0.24
29897 H 30.096982006919944 106.0729482832804 91.84339848675452 H 0.0 **** 0.06
29898 H 29.46313393083463 106.99882773534779 90.46114065229534 H 0.0 **** 0.06
29899 H 28.339838245374125 106.2346056275245 91.61181794826499 H 0.0 **** 0.06
29900 H 29.294574314608752 105.22636785965724 90.49884378963637 H 0.0 **** 0.06
29901 C 209.21238234522843 87.60683229682562 28.886992208053726 C 0.0 **** -0.24
29902 H 208.18613326734922 87.25948981696573 29.000603772772152 H 0.0 **** 0.06
29903 H 209.62806112603738 87.21355679635172 27.9592594332984 H 0.0 **** 0.06
29904 H 209.8096673458512 87.2594176341575 29.730061748672398 H 0.0 **** 0.06
29905 H 209.225218185924 88.69698620865432 28.856904462483314 H 0.0 **** 0.06
29906 C 199.87355129024633 239.58244794468328 245.5160550881693 C 0.0 **** -0.24
29907 H 200.24497723672576 238.55865615562817 245.46845560678494 H 0.0 **** 0.06
29908 H 199.6715291006713 239.94238478490493 244.50756063183297 H 0.0 **** 0.06
29909 H 200.6239445682385 240.2190320813828 245.9855091756786 H 0.0 **** 0.06
29910 H 198.95579131854078 239.6095646987148 246.10404649233166 H 0.0 **** 0.06
29911 C 149.47935150907955 21.38943122495121 68.84067916681133 C 0.0 **** -0.24
29912 H 150.45180461953632 21.747929890327867 69.1765351077484 H 0.0 **** 0.06
29913 H 148.70457055448833 21.759599679279148 69.51112852680453 H 0.0 **** 0.06
29914 H 149.47328509587356 20.300108461633926 68.84344883094732 H 0.0 **** 0.06
29915 H 149.28870323161408 21.751065988051522 67.82957327982248 H 0.0 **** 0.06
29916 C 207.83002624408397 81.60007380727549 56.07007898696486 C 0.0 **** -0.24
29917 H 207.04967856293888 82.31144548661709 55.80203908863271 H 0.0 **** 0.06
29918 H 208.46309330108977 82.0311585395961 56.84658245649598 H 0.0 **** 0.06
29919 H 208.43406411442706 81.37521787813012 55.19146039823613 H 0.0 **** 0.06
29920 H 207.37233279267753 80.6826973890573 56.441673915679786 H 0.0 **** 0.06
29921 C 224.1913222263252 169.06617203025363 211.85633851524724 C 0.0 **** -0.24
29922 H 223.6370817116312 168.81183632927835 212.76009588170785 H 0.0 **** 0.06
29923 H 224.42594862933424 170.13146344819648 211.8618369398695 H 0.0 **** 0.06
29924 H 223.58592282048676 168.8316743903708 210.98084152251556 H 0.0 **** 0.06
29925 H 225.1164187440316 168.4905091537954 211.82374624439603 H 0.0 **** 0.06
29926 C 246.6227012452481 71.93325013984062 238.93208030659878 C 0.0 **** -0.24
29927 H 247.48281884213728 71.53636170984149 239.4719301645364 H 0.0 **** 0.06
29928 H 246.96743044729985 72.51753471026893 238.07958639104146 H 0.0 **** 0.06
29929 H 246.03883022581303 72.56925540707593 239.59691148442386 H 0.0 **** 0.06
29930 H 246.00256907434496 71.10853149267223 238.58149107665952 H 0.0 **** 0.06
29931 C 125.43065257720136 165.9580769168149 162.5772485841682 C 0.0 **** -0.24
29932 H 124.37388036119293 165.70346624151517 162.6619389792277 H 0.0 **** 0.06
29933 H 125.53956168372176 166.85999521369195 161.97555451403346 H 0.0 **** 0.06
29934 H 125.96528167668691 165.13621325601702 162.10063089512946 H 0.0 **** 0.06
29935 H 125.84225583993853 166.13153379257398 163.57123401145293 H 0.0 **** 0.06
29936 C 52.179176547079095 69.27109739804288 172.00433751205193 C 0.0 **** -0.24
29937 H 52.71312824257805 68.69950971903481 172.76382002421062 H 0.0 **** 0.06
29938 H 51.108700025953766 69.2223064439259 172.20069437451482 H 0.0 **** 0.06
29939 H 52.38906155961993 68.85180998316673 171.01988846666325 H 0.0 **** 0.06
29940 H 52.50844158288291 70.3096062340368 172.03461126609892 H 0.0 **** 0.06
29941 C 241.22063118843215 162.08554289824673 225.69106356350505 C 0.0 **** -0.24
29942 H 240.43120898749993 161.5076090779558 226.17276956110695 H 0.0 **** 0.06
29943 H 241.74771088177746 162.67469206233653 226.44160392185907 H 0.0 **** 0.06
29944 H 240.78110062986403 162.7515408043297 224.94861003296288 H 0.0 **** 0.06
29945 H 241.92076005475548 161.40721831565173 225.2034439371582 H 0.0 **** 0.06
29946 C 78.84482795209982 244.88507191685088 164.1642987676988 C 0.0 **** -0.24
29947 H 79.67263541025326 245.16746149008935 164.81540284418293 H 0.0 **** 0.06
29948 H 78.72384147889412 245.63595427688958 163.38310767086958 H 0.0 **** 0.06
29949 H 77.92851766937093 244.81906694092595 164.75073919599228 H 0.0 **** 0.06
29950 H 79.05527536544434 243.91788500263868 163.7089824842068 H 0.0 **** 0.06
29951 C 133.82015620351237 136.3997564231296 37.87657910038783 C 0.0 **** -0.24
29952 H 134.0166227485358 137.28951985260773 37.278651427241726 H 0.0 **** 0.06
29953 H 133.3809346031641 136.69328161273498 38.83102812303284 H 0.0 **** 0.06
29954 H 134.75490210577468 135.86875798084446 38.05440855253315 H 0.0 **** 0.06
29955 H 133.12807501425453 135.74947373028456 37.343209061267515 H 0.0 **** 0.06
29956 C 2.355486078000496 23.33008054324975 217.22398159237758 C 0.0 **** -0.24
29957 H 3.1199067364337623 23.586029519992806 217.95717443241142 H 0.0 **** 0.06
29958 H 2.776513731563057 23.39839830169022 216.2203875619548 H 0.0 **** 0.06
29959 H 1.5184970816083876 24.022436381541866 217.314807704705 H 0.0 **** 0.06
29960 H 2.006922726911313 22.313175657828324 217.40260300051676 H 0.0 **** 0.06
29961 C 172.01520999760274 96.95622275915969 40.62800314769075 C 0.0 **** -0.24
29962 H 172.09169137735623 98.02071824299554 40.4101625719249 H 0.0 **** 0.06
29963 H 172.9030609358104 96.63177973134722 41.17169332821496 H 0.0 **** 0.06
29964 H 171.9372005714955 96.39941246624767 39.694327404207414 H 0.0 **** 0.06
29965 H 171.12938421917406 96.77180548700491 41.235219354900195 H 0.0 **** 0.06
29966 C 124.54902583310533 181.2790332809265 153.78683205948244 C 0.0 **** -0.24
29967 H 125.32747414687168 181.40046182564421 153.03386134532838 H 0.0 **** 0.06
29968 H 124.35580629835641 180.2167409898197 153.94223761499896 H 0.0 **** 0.06
29969 H 123.63539205291218 181.76853967303336 153.44769434549184 H 0.0 **** 0.06
29970 H 124.87647675555948 181.72975633172808 154.72436403545908 H 0.0 **** 0.06
29971 C 19.83468123485669 109.59357270693502 5.46840559751827 C 0.0 **** -0.24
29972 H 19.478155997840602 108.56404916761156 5.500211348560043 H 0.0 **** 0.06
29973 H 19.621188564371536 110.02223778719906 4.489287271308271 H 0.0 **** 0.06
29974 H 20.91027797608095 109.60916000724703 5.645764725582296 H 0.0 **** 0.06
29975 H 19.330918334602956 110.17683784614565 6.2391826641665915 H 0.0 **** 0.06
29976 C 199.0647388456426 119.89101439519206 88.61767116300865 C 0.0 **** -0.24
29977 H 199.52513629635502 119.00544139155636 88.18042157210084 H 0.0 **** 0.06
29978 H 199.26986885700728 120.75608754127398 87.98602908709222 H 0.0 **** 0.06
29979 H 199.47689498159934 120.06123146229353 89.61196791578394 H 0.0 **** 0.06
29980 H 197.98758886315636 119.7406679110612 88.69170103043666 H 0.0 **** 0.06
29981 C 0.5763682810095077 42.22167453972017 37.67321874098408 C 0.0 **** -0.24
29982 H 1.0314470715494792 42.521348402432636 38.616756461654205 H 0.0 **** 0.06
29983 H 0.9138723130874951 41.21892914963958 37.40929585564672 H 0.0 **** 0.06
29984 H 0.8684357469273039 42.92108505527554 36.89008140180238 H 0.0 **** 0.06
29985 H -0.5090888272273162 42.22305485130644 37.776357178599085 H 0.0 **** 0.06
29986 C 172.9213227999986 48.36295558153773 230.3562846157231 C 0.0 **** -0.24
29987 H 173.798760511094 48.17663394313644 230.97444306298746 H 0.0 **** 0.06
29988 H 172.0214448372816 48.105860982060165 230.9160904744504 H 0.0 **** 0.06
29989 H 172.97555195863856 47.7530160158272 229.45457485474003 H 0.0 **** 0.06
29990 H 172.8885936680399 49.41736496858624 230.07995287983584 H 0.0 **** 0.06
29991 C 229.71112166772738 164.43218825310186 31.246188354878058 C 0.0 **** -0.24
29992 H 229.23485539617218 164.46433508419625 30.26595542598224 H 0.0 **** 0.06
29993 H 230.7896408866777 164.53554982812136 31.129675514443164 H 0.0 **** 0.06
29994 H 229.48666871948103 163.4796255930816 31.727050944805256 H 0.0 **** 0.06
29995 H 229.33105054092238 165.24809567677772 31.860835881622876 H 0.0 **** 0.06
29996 C 44.51621202542347 215.18380608041682 175.05251717973667 C 0.0 **** -0.24
29997 H 44.326134446028135 216.09475396497123 175.61981430767324 H 0.0 **** 0.06
29998 H 45.558863770574504 215.1657517812015 174.7339564198807 H 0.0 **** 0.06
29999 H 43.86833662121805 215.16005436489894 174.17629581194325 H 0.0 **** 0.06
30000 H 44.311622316246684 214.31625559457322 175.67932717290995 H 0.0 **** 0.06
30001 C 112.17813350258095 130.4038517164848 140.41876159403992 C 0.0 **** -0.24
30002 H 112.09422520347292 129.63164179533675 141.18445070780254 H 0.0 **** 0.06
30003 H 111.22669384189098 130.50105508985322 139.8960976073349 H 0.0 **** 0.06
30004 H 112.95657048486996 130.12702051454067 139.70837232679852 H 0.0 **** 0.06
30005 H 112.43398757527345 131.35348947500083 140.88837141853114 H 0.0 **** 0.06
30006 C 102.7690516072688 84.06405200780026 26.93236883410509 C 0.0 **** -0.24
30007 H 102.54475653589239 85.09342669720442 27.211209352389005 H 0.0 **** 0.06
30008 H 101.96601495040304 83.41196537092489 27.27446926555851 H 0.0 **** 0.06
30009 H 103.70801491316823 83.75955887578536 27.395215910993784 H 0.0 **** 0.06
30010 H 102.85838788217467 83.9934378165951 25.848026064725474 H 0.0 **** 0.06
30011 C 242.06016496657114 30.524385249167523 246.87265633904326 C 0.0 **** -0.24
30012 H 241.34919469100748 30.503822215000838 247.698833076502 H 0.0 **** 0.06
30013 H 241.8558924787 31.389355086066388 246.2404597593927 H 0.0 **** 0.06
30014 H 241.95950109285008 29.612516672835483 246.28493868333976 H 0.0 **** 0.06
30015 H 243.07295715888742 30.59317517795776 247.26712619885882 H 0.0 **** 0.06
30016 C 152.38616376671573 76.34777992735087 95.4383443251476 C 0.0 **** -0.24
30017 H 152.8163342558044 77.19455460108176 94.90220387236792 H 0.0 **** 0.06
30018 H 151.30209868090301 76.35711883535399 95.31938106795067 H 0.0 **** 0.06
30019 H 152.6369757248104 76.42228396336915 96.49586551488676 H 0.0 **** 0.06
30020 H 152.7884823676031 75.41948360556955 95.03309347854182 H 0.0 **** 0.06
30021 C 199.89346673647628 212.4366552483415 114.34032759130551 C 0.0 **** -0.24
30022 H 199.94551739533904 211.35766851761284 114.48688793992886 H 0.0 **** 0.06
30023 H 199.2847560352447 212.88146552633907 115.12761640037098 H 0.0 **** 0.06
30024 H 199.44406084147505 212.64974921649036 113.37045807918466 H 0.0 **** 0.06
30025 H 200.8982069999748 212.85601497060583 114.37582380122541 H 0.0 **** 0.06
30026 C 161.67275871905474 211.41064550886284 76.10340152046868 C 0.0 **** -0.24
30027 H 162.69339279811712 211.03086270342317 76.04754746408571 H 0.0 **** 0.06
30028 H 161.39025900683623 211.53920356591823 77.14769233038626 H 0.0 **** 0.06
30029 H 160.99557288566493 210.7008899655034 75.62756962674902 H 0.0 **** 0.06
30030 H 161.61455918104423 212.37027223038706 75.58918080528815 H 0.0 **** 0.06
30031 C 10.270747077121854 86.17907692261224 188.31072375053822 C 0.0 **** -0.24
30032 H 10.454189474019557 85.11041036284647 188.4186368300567 H 0.0 **** 0.06
30033 H 9.215114251146161 86.34516528926486 188.09013004112873 H 0.0 **** 0.06
30034 H 10.878638773962251 86.5710392112118 187.49557725224142 H 0.0 **** 0.06
30035 H 10.533231212667687 86.68845245251168 189.2374697829449 H 0.0 **** 0.06
30036 C 48.98341188167004 215.32419839121405 130.6648672546991 C 0.0 **** -0.24
30037 H 50.01367373780428 215.37456516602558 130.31410343926217 H 0.0 **** 0.06
30038 H 48.30991713687557 215.27356100056355 129.8089564774051 H 0.0 **** 0.06
30039 H 48.757322082044695 216.2133420881388 131.2543962775894 H 0.0 **** 0.06
30040 H 48.85397149279832 214.43618507061797 131.28366536272944 H 0.0 **** 0.06
30041 C 105.87841255018091 37.9875752040347 59.10235170648443 C 0.0 **** -0.24
30042 H 106.68865223389736 37.68418343506224 59.76594922474092 H 0.0 **** 0.06
30043 H 105.9995897646273 39.03861181391434 58.83917172712029 H 0.0 **** 0.06
30044 H 104.92387827137932 37.846766394966835 59.60838505372155 H 0.0 **** 0.06
30045 H 105.90396426862324 37.38055945685568 58.19791124300474 H 0.0 **** 0.06
30046 C 3.4462803679082015 51.89787495785602 78.5129457368721 C 0.0 **** -0.24
30047 H 3.1560503718328476 52.697259471297315 77.83117193440395 H 0.0 **** 0.06
30048 H 3.980767010307801 51.12454836175357 77.96012968634341 H 0.0 **** 0.06
30049 H 2.5535777418388648 51.46762912408147 78.96863217329312 H 0.0 **** 0.06
30050 H 4.092326176696346 52.30179142223568 79.29144227314137 H 0.0 **** 0.06
30051 C 229.68696805057954 74.47219589750915 42.870909220603394 C 0.0 **** -0.24
30052 H 228.83021255005258 75.09450452273597 43.133244075245756 H 0.0 **** 0.06
30053 H 229.48204192421957 73.94773569789305 41.93699468384068 H 0.0 **** 0.06
30054 H 229.86363094777744 73.74536865956065 43.6644443279109 H 0.0 **** 0.06
30055 H 230.5691082930644 75.1006068647448 42.74957985531208 H 0.0 **** 0.06
30056 C 37.44164655563557 203.46930737514737 156.93019115996069 C 0.0 **** -0.24
30057 H 38.166821810377286 202.67571454729756 157.11120178332942 H 0.0 **** 0.06
30058 H 37.61164094599755 204.28424922880362 157.6345776036358 H 0.0 **** 0.06
30059 H 36.43380301020437 203.07746635526604 157.0644988833736 H 0.0 **** 0.06
30060 H 37.55555022328011 203.83952606961708 155.91112901960057 H 0.0 **** 0.06
30061 C 49.792433265527976 60.87961032800598 75.37177581567252 C 0.0 **** -0.24
30062 H 49.79787950659163 60.935540394483354 74.28341111061613 H 0.0 **** 0.06
30063 H 50.743323384084675 60.473781245674246 75.7191507163152 H 0.0 **** 0.06
30064 H 48.98022091198108 60.22980274594539 75.69812650345565 H 0.0 **** 0.06
30065 H 49.64962397310258 61.87726291993184 75.7861854854776 H 0.0 **** 0.06
30066 C 188.58927901012737 106.76712827916623 148.29342834037442 C 0.0 **** -0.24
30067 H 189.59025046541493 107.19930586074116 148.25114032581212 H 0.0 **** 0.06
30068 H 188.08253112175362 106.93225309339923 147.3425424672118 H 0.0 **** 0.06
30069 H 188.023143811314 107.24170031521214 149.09469726213638 H 0.0 **** 0.06
30070 H 188.66401395768338 105.69749484093717 148.48541675011515 H 0.0 **** 0.06
30071 C 67.08005977448175 63.08780894780014 215.35440294582784 C 0.0 **** -0.24
30072 H 67.95206997416548 62.49600265695267 215.07868736642638 H 0.0 **** 0.06
30073 H 66.46614922735867 62.52464258239999 216.05798667468486 H 0.0 **** 0.06
30074 H 66.49555854924066 63.31186735350522 214.4613291916219 H 0.0 **** 0.06
30075 H 67.40486790609233 64.01857292765621 215.81894643767978 H 0.0 **** 0.06
30076 C 82.73384971467655 184.33212713880982 190.28409611522545 C 0.0 **** -0.24
30077 H 82.29987895313414 184.61920768349557 191.2413143230699 H 0.0 **** 0.06
30078 H 82.1942442639041 183.47433749188104 189.8830369606427 H 0.0 **** 0.06
30079 H 83.78237467546981 184.06894874373944 190.42443894744935 H 0.0 **** 0.06
30080 H 82.65879855099686 185.16730038591342 189.58643820732834 H 0.0 **** 0.06
30081 C 84.9630865246277 146.29850159474015 50.704412277158355 C 0.0 **** -0.24
30082 H 84.54827250995376 146.29824957040782 49.697650232386266 H 0.0 **** 0.06
30083 H 84.99488473224557 147.32000765607378 51.08435018902199 H 0.0 **** 0.06
30084 H 85.97227985237598 145.88682066606756 50.68193533995428 H 0.0 **** 0.06
30085 H 84.3368867709766 145.68778647081396 51.35588022624678 H 0.0 **** 0.06
30086 C 198.60289131068942 218.28669698708728 242.18501880203848 C 0.0 **** -0.24
30087 H 198.09806070439157 218.68229779258797 243.06577905366805 H 0.0 **** 0.06
30088 H 198.75363538525232 217.21372794885252 242.30469017715964 H 0.0 **** 0.06
30089 H 199.56852455877242 218.7788468898185 242.06838487022668 H 0.0 **** 0.06
30090 H 197.99088586516893 218.47177746185758 241.30255173963917 H 0.0 **** 0.06
30091 C 224.48280843945093 164.94460979249018 30.525468653286595 C 0.0 **** -0.24
30092 H 224.7228047386746 165.89341552734365 31.006340811274896 H 0.0 **** 0.06
30093 H 225.34212610332577 164.60407340272135 29.94618572850632 H 0.0 **** 0.06
30094 H 223.62818819364423 165.07970795937186 29.862612493270063 H 0.0 **** 0.06
30095 H 224.24072943132717 164.20314434040804 31.28599695212651 H 0.0 **** 0.06
30096 C 162.9336522280007 121.0542088971784 102.26530088854159 C 0.0 **** -0.24
30097 H 162.12535472156574 121.02635820935876 101.53470110252564 H 0.0 **** 0.06
30098 H 163.30229511149682 122.07558548160392 102.36032649892681 H 0.0 **** 0.06
30099 H 163.743555581299 120.40386690567595 101.93695898173186 H 0.0 **** 0.06
30100 H 162.56065740898083 120.71143616263396 103.23103081853694 H 0.0 **** 0.06
30101 C 161.40130504819416 139.30887940527992 102.31211598894515 C 0.0 **** -0.24
30102 H 160.77015122425018 140.12872844432138 102.65335338657303 H 0.0 **** 0.06
30103 H 162.03587657999273 138.97277292921837 103.13276450485736 H 0.0 **** 0.06
30104 H 162.025866005189 139.65037473023554 101.48649008968499 H 0.0 **** 0.06
30105 H 160.7742543723627 138.48358852742643 101.97548714111352 H 0.0 **** 0.06
30106 C 155.170313536588 218.8621020338326 200.93612507752434 C 0.0 **** -0.24
30107 H 156.1576686188304 218.8209810265895 200.47801967805987 H 0.0 **** 0.06
30108 H 154.78729067463985 219.88178520526267 200.88432453391982 H 0.0 **** 0.06
30109 H 155.2407363926888 218.55319286257566 201.97945020526896 H 0.0 **** 0.06
30110 H 154.49472714940546 218.191985935486 200.4037520645471 H 0.0 **** 0.06
30111 C 123.43568553760349 3.130375835188346 55.99733100177457 C 0.0 **** -0.24
30112 H 124.21518323448902 3.227923115335784 56.752933699889496 H 0.0 **** 0.06
30113 H 123.73970607987542 2.3938585846047147 55.25417865577839 H 0.0 **** 0.06
30114 H 123.27881268855452 4.093821234955385 55.5110446131975 H 0.0 **** 0.06
30115 H 122.50847988506465 2.808059888172309 56.47131800455077 H 0.0 **** 0.06
30116 C 138.44257707805187 65.89196393803886 100.37522945887144 C 0.0 **** -0.24
30117 H 137.94021035472844 66.85983017963176 100.37727710460294 H 0.0 **** 0.06
30118 H 138.94805842821185 65.7436552365867 101.32956624657007 H 0.0 **** 0.06
30119 H 139.17476710723167 65.86417025977354 99.56776995579935 H 0.0 **** 0.06
30120 H 137.70698394319263 65.10138373131596 100.22702269277895 H 0.0 **** 0.06
30121 C 84.69368002847168 140.25417902233852 183.69109273567008 C 0.0 **** -0.24
30122 H 84.7946101798334 139.49944813410193 182.91159549172994 H 0.0 **** 0.06
30123 H 83.99561059620103 141.02464467674113 183.3617732486876 H 0.0 **** 0.06
30124 H 85.66570854059185 140.7057102031393 183.88771858957307 H 0.0 **** 0.06
30125 H 84.31867944583985 139.7889067544205 184.6018648445139 H 0.0 **** 0.06
30126 C 150.24581909172034 66.40515747244234 124.2095897773323 C 0.0 **** -0.24
30127 H 149.62520603008056 66.48638834329032 123.31704031353337 H 0.0 **** 0.06
30128 H 149.6261720484547 66.53607109093113 125.09648195296077 H 0.0 **** 0.06
30129 H 151.01574027466654 67.17657337949686 124.18693051662152 H 0.0 **** 0.06
30130 H 150.71660342730013 65.42265565420723 124.23598771534066 H 0.0 **** 0.06
30131 C 4.685670739167691 70.22870422206282 236.89066617680754 C 0.0 **** -0.24
30132 H 3.87109315035012 69.78733579795426 237.46454580786323 H 0.0 **** 0.06
30133 H 5.4200293779578885 70.65753366367704 237.57339473217175 H 0.0 **** 0.06
30134 H 4.29119825053327 71.01054514497608 236.24168790631268 H 0.0 **** 0.06
30135 H 5.160122507726484 69.4577660445714 236.28355134893047 H 0.0 **** 0.06
30136 C 195.17907600530395 2.5139317784794173 147.99040604596001 C 0.0 **** -0.24
30137 H 194.64385609569302 2.4950971639755437 148.94007202952187 H 0.0 **** 0.06
30138 H 195.02569331574773 3.4782307169483886 147.50662213710396 H 0.0 **** 0.06
30139 H 194.80170227361384 1.7196959226370154 147.3465745171785 H 0.0 **** 0.06
30140 H 196.24340417786283 2.3619091223488624 148.16964114707883 H 0.0 **** 0.06
30141 C 188.95350508918315 243.51773377707826 231.45503909748038 C 0.0 **** -0.24
30142 H 189.65483347575775 244.06657578411097 230.82712548290579 H 0.0 **** 0.06
30143 H 188.95561615265734 242.4658974334555 231.16809585479683 H 0.0 **** 0.06
30144 H 187.95213684949346 243.9286018826213 231.3249329058404 H 0.0 **** 0.06
30145 H 189.25208401292164 243.61044728465163 232.49952002432542 H 0.0 **** 0.06
30146 C 120.63509923893392 155.2306443522267 114.26339962690315 C 0.0 **** -0.24
30147 H 121.09602207864995 155.26837458216423 113.27666099432523 H 0.0 **** 0.06
30148 H 119.74686322957527 154.59914281831885 114.22512190086951 H 0.0 **** 0.06
30149 H 120.35306998165032 156.2376214079752 114.57117272171891 H 0.0 **** 0.06
30150 H 121.34492638979296 154.81646987858718 114.97973369317401 H 0.0 **** 0.06
30151 C 225.20123448133342 2.3728369317952485 37.40939094858325 C 0.0 **** -0.24
30152 H 226.01055673612328 2.0253989744997654 38.05202064638135 H 0.0 **** 0.06
30153 H 225.42612754546968 2.1207345791550125 36.37325964482105 H 0.0 **** 0.06
30154 H 225.10015601887858 3.453840946369681 37.506504465022886 H 0.0 **** 0.06
30155 H 224.26962070327716 1.8927816428059288 37.707946221795765 H 0.0 **** 0.06
30156 C 100.44375631801958 171.91301336727645 245.74275501223957 C 0.0 **** -0.24
30157 H 101.49017947030345 171.898346364361 245.43726517818754 H 0.0 **** 0.06
30158 H 100.0657549543559 170.89201826998672 245.79394629877038 H 0.0 **** 0.06
30159 H 99.86233496250273 172.48003060135113 245.01575416455182 H 0.0 **** 0.06
30160 H 100.3576600971711 172.38286865789308 246.72240597745346 H 0.0 **** 0.06
30161 C 236.87951253439823 81.16793814522703 219.28243498360393 C 0.0 **** -0.24
30162 H 237.58992651691582 81.75205141821695 219.86694864577436 H 0.0 **** 0.06
30163 H 236.2806267928304 80.55004858182141 219.95160232167393 H 0.0 **** 0.06
30164 H 237.4211040585837 80.52900827354532 218.58514823789847 H 0.0 **** 0.06
30165 H 236.22628192592703 81.83994452351845 218.72674643872375 H 0.0 **** 0.06
30166 C 192.5859193445637 4.178913582256143 23.99129913517136 C 0.0 **** -0.24
30167 H 191.64176755179517 4.184808175885536 23.44733662936025 H 0.0 **** 0.06
30168 H 193.31080495693698 4.8021530432002635 23.46724379799774 H 0.0 **** 0.06
30169 H 192.96220060664467 3.1580484098874706 24.05511353799571 H 0.0 **** 0.06
30170 H 192.42820705841865 4.571687307907467 24.996155946799746 H 0.0 **** 0.06
30171 C 182.5760248260608 170.63385127136988 149.57322512467687 C 0.0 **** -0.24
30172 H 182.17491779837684 170.90962524411034 148.59804184160504 H 0.0 **** 0.06
30173 H 182.60070854052867 171.51371672041347 150.21682211310215 H 0.0 **** 0.06
30174 H 183.58659804515958 170.24378926914807 149.45221697701524 H 0.0 **** 0.06
30175 H 181.94227970801745 169.87002559345314 150.02363607759577 H 0.0 **** 0.06
30176 C 105.08469583931122 70.75183631080691 172.58984652896274 C 0.0 **** -0.24
30177 H 105.358653847879 71.01684007217048 171.56909456280678 H 0.0 **** 0.06
30178 H 105.93636321273226 70.2865314622106 173.08526013795225 H 0.0 **** 0.06
30179 H 104.24767547560566 70.0538668219315 172.57129733886777 H 0.0 **** 0.06
30180 H 104.79514028684085 71.65211107368063 173.13345164241625 H 0.0 **** 0.06
30181 C 147.55741517437582 122.0272103588702 135.42518579416276 C 0.0 **** -0.24
30182 H 146.78775166443972 121.44231939393256 135.92907190467582 H 0.0 **** 0.06
30183 H 147.52956491162274 123.05448473820385 135.78936197024808 H 0.0 **** 0.06
30184 H 147.3756934191352 122.01681908094173 134.34984314755928 H 0.0 **** 0.06
30185 H 148.5367691350569 121.59426597099275 135.6321847280262 H 0.0 **** 0.06
30186 C 87.96527045758214 8.2949463947281 7.18560619576877 C 0.0 **** -0.24
30187 H 87.87898465865689 8.304620921558211 6.099568570770003 H 0.0 **** 0.06
30188 H 87.03398315719275 8.65380043832252 7.626071095452431 H 0.0 **** 0.06
30189 H 88.78513385481116 8.945332062284791 7.49037506224812 H 0.0 **** 0.06
30190 H 88.16028251545126 7.278396113981131 7.5260432461210485 H 0.0 **** 0.06
30191 C 218.7296362296271 63.39790292124434 29.66695219365843 C 0.0 **** -0.24
30192 H 219.2036051149315 63.50434299961856 28.690874030602373 H 0.0 **** 0.06
30193 H 218.40877299056515 62.365371359322694 29.803447324128825 H 0.0 **** 0.06
30194 H 217.86345458182763 64.05841194147558 29.723589392651974 H 0.0 **** 0.06
30195 H 219.4420667304024 63.66454408342534 30.448037238669514 H 0.0 **** 0.06
30196 C 36.87192616954101 187.03593189142663 102.61320559797977 C 0.0 **** -0.24
30197 H 36.6994778959689 188.1116301125527 102.63811529596572 H 0.0 **** 0.06
30198 H 36.335010920994506 186.56244559991606 103.43563208343988 H 0.0 **** 0.06
30199 H 37.93918902526141 186.83676658533724 102.71334925960946 H 0.0 **** 0.06
30200 H 36.514026835939376 186.6328852679007 101.66572575290402 H 0.0 **** 0.06
30201 C 91.88557750428413 113.50329018701555 35.84542812547974 C 0.0 **** -0.24
30202 H 91.71813647611538 112.94442323050447 36.76612829145179 H 0.0 **** 0.06
30203 H 91.95334027809747 112.80867462775984 35.00792827226364 H 0.0 **** 0.06
30204 H 92.8152755233452 114.0669542761728 35.92684656730307 H 0.0 **** 0.06
30205 H 91.05644747747891 114.19145506957733 35.68202354026192 H 0.0 **** 0.06
30206 C 196.2826005975614 39.86533484861471 85.24737618506285 C 0.0 **** -0.24
30207 H 196.0049121948049 40.51766441567837 84.41981056821524 H 0.0 **** 0.06
30208 H 197.36974843763687 39.821492490383946 85.32692497727729 H 0.0 **** 0.06
30209 H 195.89062689889602 38.86401317803217 85.06858272287838 H 0.0 **** 0.06
30210 H 195.86622813537832 40.25855016095362 86.17497106591816 H 0.0 **** 0.06
30211 C 31.777187653674645 122.5157831581221 0.5438742638781093 C 0.0 **** -0.24
30212 H 31.06210891840888 122.94045334938696 1.2471403459465051 H 0.0 **** 0.06
30213 H 32.07686801141827 123.27979068926012 -0.1754822351632157 H 0.0 **** 0.06
30214 H 31.316169108095863 121.68103571546442 0.016068262689756807 H 0.0 **** 0.06
30215 H 32.6546399025911 122.16303473396525 1.0858914864006266 H 0.0 **** 0.06
30216 C 72.43232555205765 38.54169852464176 222.69104807211826 C 0.0 **** -0.24
30217 H 72.4484958389967 38.83176081776034 221.64115905751612 H 0.0 **** 0.06
30218 H 73.43837832823698 38.26407715029259 223.00653620088136 H 0.0 **** 0.06
30219 H 71.76285297310486 37.69165760992868 222.82246145696197 H 0.0 **** 0.06
30220 H 72.0798212072659 39.37897294386184 223.29312265200903 H 0.0 **** 0.06
30221 C 138.30549100656003 185.77940331151243 23.004127137860934 C 0.0 **** -0.24
30222 H 138.4611296835026 185.45137342541426 21.975995544773212 H 0.0 **** 0.06
30223 H 139.26812220584657 185.85426998042257 23.510231601436004 H 0.0 **** 0.06
30224 H 137.67586389133115 185.05714876854418 23.523910401811605 H 0.0 **** 0.06
30225 H 137.81706537902375 186.75343606290318 23.003718704153044 H 0.0 **** 0.06
30226 C 198.02113275922642 190.00018830373014 55.38584500276505 C 0.0 **** -0.24
30227 H 198.26122847139254 190.33789024412943 56.39430770568498 H 0.0 **** 0.06
30228 H 198.89817264843526 189.53104396149166 54.94194617331411 H 0.0 **** 0.06
30229 H 197.71861929357337 190.8538358665574 54.77986810209478 H 0.0 **** 0.06
30230 H 197.2053023564 189.27919733292129 55.43009808981179 H 0.0 **** 0.06
30231 C 44.2006444528042 198.1505770759014 206.5808870310222 C 0.0 **** -0.24
30232 H 43.18824644391506 197.90562607300012 206.26055151691304 H 0.0 **** 0.06
30233 H 44.262637062360454 199.21502170473423 206.80794235653676 H 0.0 **** 0.06
30234 H 44.903522901952016 197.90719243642718 205.78340889140006 H 0.0 **** 0.06
30235 H 44.44876274121114 197.57350156180246 207.47249162332332 H 0.0 **** 0.06
30236 C 85.94437410305596 213.31027918353078 230.98098044378963 C 0.0 **** -0.24
30237 H 86.25754090158406 212.67867789312686 230.14986376614064 H 0.0 **** 0.06
30238 H 84.8546935969571 213.33284822111207 231.02909097191724 H 0.0 **** 0.06
30239 H 86.3222027399498 214.32144184371106 230.83156772925577 H 0.0 **** 0.06
30240 H 86.34071372339622 212.90883079611518 231.91358307384291 H 0.0 **** 0.06
30241 C 151.80557118256598 146.2577559935214 205.83214838466466 C 0.0 **** -0.24
30242 H 150.74843335155364 146.09246636702386 206.0433817345095 H 0.0 **** 0.06
30243 H 152.1938805623402 147.02435832495203 206.50297568261914 H 0.0 **** 0.06
30244 H 151.92152662140424 146.58618714942605 204.79861033755262 H 0.0 **** 0.06
30245 H 152.35516668849672 145.32928459484677 205.98234557785597 H 0.0 **** 0.06
30246 C 208.33686328783585 188.04649360626698 28.399127480950852 C 0.0 **** -0.24
30247 H 209.1144642496127 188.38158998551773 27.71252735530331 H 0.0 **** 0.06
30248 H 208.4286526509194 188.58554434341772 29.342366894084222 H 0.0 **** 0.06
30249 H 208.44672749264305 186.97752875075074 28.57796972977397 H 0.0 **** 0.06
30250 H 207.3576830528544 188.24311732300347 27.961992770859666 H 0.0 **** 0.06
30251 C 152.2863510649385 212.91461269496995 239.24880196202463 C 0.0 **** -0.24
30252 H 151.61111982069488 212.24888118565755 239.78666987947406 H 0.0 **** 0.06
30253 H 152.20980450172308 213.919742361167 239.66154829003187 H 0.0 **** 0.06
30254 H 152.01526779815507 212.9328686960663 238.19326742981752 H 0.0 **** 0.06
30255 H 153.31047856433716 212.55522464780546 239.35434662391123 H 0.0 **** 0.06
30256 C 78.43787554996982 122.74661418243201 173.06137175670213 C 0.0 **** -0.24
30257 H 78.74422657300201 121.80006320469045 172.61827713115136 H 0.0 **** 0.06
30258 H 77.63904938556851 123.18705040136823 172.4639989471975 H 0.0 **** 0.06
30259 H 79.28944053476005 123.42770908217918 173.0878934341992 H 0.0 **** 0.06
30260 H 78.08016126880528 122.57382983323242 174.07682960378847 H 0.0 **** 0.06
30261 C 133.4761365851506 123.20606257246433 148.30511552347355 C 0.0 **** -0.24
30262 H 133.84438821620412 122.5102307080667 147.55015437355624 H 0.0 **** 0.06
30263 H 132.95509608301006 122.65106220413918 149.08607196783572 H 0.0 **** 0.06
30264 H 132.7879288679031 123.9133409371147 147.84062328812158 H 0.0 **** 0.06
30265 H 134.31492035061774 123.74760429440803 148.73999930826182 H 0.0 **** 0.06
30266 C 50.77960927752807 206.61475682682624 56.09825539726532 C 0.0 **** -0.24
30267 H 51.6562926011533 207.19274546828663 56.38829683651849 H 0.0 **** 0.06
30268 H 49.88775237644845 207.23509063586368 56.19284299056065 H 0.0 **** 0.06
30269 H 50.68715552667143 205.7441878983961 56.74837202024088 H 0.0 **** 0.06
30270 H 50.88631523007916 206.28572881490126 55.06474537164635 H 0.0 **** 0.06
30271 C 77.62765590502113 117.19523498899497 51.28945835557013 C 0.0 **** -0.24
30272 H 77.32904947506194 116.2824260779623 51.80530587635471 H 0.0 **** 0.06
30273 H 78.43308598480925 117.67821149464854 51.84157305205159 H 0.0 **** 0.06
30274 H 76.7752772039924 117.87072402981693 51.223901774128905 H 0.0 **** 0.06
30275 H 77.97244374957157 116.94771092355785 50.28483366886459 H 0.0 **** 0.06
30276 C 52.18491765404441 172.16789736153243 110.64433060288977 C 0.0 **** -0.24
30277 H 53.10246922248021 172.41236413182088 111.17972549321283 H 0.0 **** 0.06
30278 H 51.36380172832011 172.07380061546536 111.35538124353624 H 0.0 **** 0.06
30279 H 52.31533042868256 171.22529041726972 110.1118465795025 H 0.0 **** 0.06
30280 H 51.9588556147431 172.95988710840555 109.92980294627418 H 0.0 **** 0.06
30281 C 23.089665143199923 135.44980610727018 172.6202458847383 C 0.0 **** -0.24
30282 H 23.672513026447035 135.32128571720003 173.53232231984774 H 0.0 **** 0.06
30283 H 23.739914951469956 135.32846147788396 171.75285712850342 H 0.0 **** 0.06
30284 H 22.649653661489452 136.44728707814826 172.6072004240959 H 0.0 **** 0.06
30285 H 22.296735950142065 134.7022605716181 172.587618579151 H 0.0 **** 0.06
30286 C 93.48296137192474 196.71183796755014 158.60853889589097 C 0.0 **** -0.24
30287 H 94.50506980742577 196.4366727930353 158.34803161451967 H 0.0 **** 0.06
30288 H 93.46551378024523 197.13485866817206 159.61326305876912 H 0.0 **** 0.06
30289 H 92.84862657348694 195.82637297287778 158.57542288562507 H 0.0 **** 0.06
30290 H 93.11340744378978 197.45041514486456 157.8967543623021 H 0.0 **** 0.06
30291 C 46.230715102726634 35.59075922137124 179.95093151434668 C 0.0 **** -0.24
30292 H 45.527151960494365 34.985673025350835 179.3781914514531 H 0.0 **** 0.06
30293 H 47.20409429444794 35.10030640244271 179.96530342105208 H 0.0 **** 0.06
30294 H 45.8647714688764 35.70326750201362 180.97202491037643 H 0.0 **** 0.06
30295 H 46.32375905016772 36.57275797019476 179.48885918829743 H 0.0 **** 0.06
30296 C 245.19958705920345 163.81715963554458 203.84440089112962 C 0.0 **** -0.24
30297 H 244.6606010203289 163.09650917076758 204.45998966075393 H 0.0 **** 0.06
30298 H 245.01697685899515 163.60347274051384 202.79124041179057 H 0.0 **** 0.06
30299 H 246.26702486163518 163.74442925069422 204.05172767224883 H 0.0 **** 0.06
30300 H 244.8518333052638 164.8236679266569 204.07607081000577 H 0.0 **** 0.06
30301 C 71.45084494959053 171.0497003371198 185.2148850973212 C 0.0 **** -0.24
30302 H 72.35635161505877 170.45468784922534 185.0923559342964 H 0.0 **** 0.06
30303 H 70.70085455284723 170.4630098030834 185.74575249611422 H 0.0 **** 0.06
30304 H 71.06605327611769 171.33118857429437 184.23514620327245 H 0.0 **** 0.06
30305 H 71.68213863026315 171.94778568898153 185.78746566034997 H 0.0 **** 0.06
30306 C 211.61485639429543 134.80127214629533 21.911813977767196 C 0.0 **** -0.24
30307 H 211.86514795866225 134.40042975752925 20.92960367401841 H 0.0 **** 0.06
30308 H 212.53176668471076 134.98777288111498 22.471325880013637 H 0.0 **** 0.06
30309 H 210.99947847293458 134.08166068279968 22.45114218746292 H 0.0 **** 0.06
30310 H 211.06473370671785 135.734134374098 21.794227210294622 H 0.0 **** 0.06
30311 C 239.22936749413572 156.5859589622469 11.053066426129561 C 0.0 **** -0.24
30312 H 240.0028110951328 156.8799513162664 10.343878823338983 H 0.0 **** 0.06
30313 H 239.46722570213774 155.60511488452252 11.464375232563853 H 0.0 **** 0.06
30314 H 238.26667815169185 156.54400216405995 10.544296911491756 H 0.0 **** 0.06
30315 H 239.18161365225114 157.31676764506207 11.860226761188116 H 0.0 **** 0.06
30316 C 218.55459625483257 213.60420272216948 217.32744631255542 C 0.0 **** -0.24
30317 H 218.22458306850803 212.6432897823035 216.93214618352295 H 0.0 **** 0.06
30318 H 219.13898447580624 213.4423394183258 218.2339159809449 H 0.0 **** 0.06
30319 H 217.68435375490566 214.21827684856285 217.561490193515 H 0.0 **** 0.06
30320 H 219.16945389717628 214.11113462875855 216.5844344142716 H 0.0 **** 0.06
30321 C 127.90570881188455 50.26446057704001 144.96746026004217 C 0.0 **** -0.24
30322 H 127.31439851132131 49.45171695910423 145.38867932936475 H 0.0 **** 0.06
30323 H 128.94017938744844 49.9396076206543 144.8548824810941 H 0.0 **** 0.06
30324 H 127.86536375344394 51.1260309474205 145.63335014191085 H 0.0 **** 0.06
30325 H 127.5028819098263 50.53844235883034 143.9920234111422 H 0.0 **** 0.06
30326 C 157.7187281120699 98.46437615737426 130.40065488152328 C 0.0 **** -0.24
30327 H 157.00968377913637 98.333707692882 129.58281965305363 H 0.0 **** 0.06
30328 H 158.40026031394305 97.61365971837182 130.4288856453932 H 0.0 **** 0.06
30329 H 157.1762651848691 98.52835388528152 131.344022463082 H 0.0 **** 0.06
30330 H 158.2874913275572 99.38082929464508 130.2452727226658 H 0.0 **** 0.06
30331 C 80.69964287180386 246.5692513060443 144.48513407431318 C 0.0 **** -0.24
30332 H 80.2176295221258 246.38129318390435 145.4450421187157 H 0.0 **** 0.06
30333 H 79.98003804653874 246.4148612393492 143.68111033585782 H 0.0 **** 0.06
30334 H 81.53895440269451 245.88443517528896 144.3601676816685 H 0.0 **** 0.06
30335 H 81.06290051671522 247.59738351603858 144.45689176807653 H 0.0 **** 0.06
30336 C 241.46288159606337 242.2123602364673 50.006866834364786 C 0.0 **** -0.24
30337 H 241.05120098153324 243.19375839774156 50.24206736192241 H 0.0 **** 0.06
30338 H 240.88672272041708 241.7601215813307 49.199857098133464 H 0.0 **** 0.06
30339 H 241.4119119385063 241.57642729093527 50.890680136007575 H 0.0 **** 0.06
30340 H 242.5022599267293 242.31947459409452 49.69611167094652 H 0.0 **** 0.06
30341 C 61.639184077363694 248.98375871631168 121.60441224822787 C 0.0 **** -0.24
30342 H 62.08297507409381 249.57939153616692 120.8068110557891 H 0.0 **** 0.06
30343 H 61.224724606113654 248.06625349276237 121.18593275471278 H 0.0 **** 0.06
30344 H 60.84597133872788 249.5540686638813 122.08600820667823 H 0.0 **** 0.06
30345 H 62.405108901099624 248.73340166836095 122.33927012155169 H 0.0 **** 0.06
30346 C 36.17003389112003 142.9005744390809 74.6135520122896 C 0.0 **** -0.24
30347 H 35.571643545916345 142.3498887672473 75.33947684070384 H 0.0 **** 0.06
30348 H 36.14361228380423 142.38358119089594 73.6540930744884 H 0.0 **** 0.06
30349 H 37.200202772349144 142.96273168314727 74.96567575751087 H 0.0 **** 0.06
30350 H 35.765197776120644 143.90556545362693 74.49563107765081 H 0.0 **** 0.06
30351 C 228.95808318580407 152.98912190906134 242.5757846049716 C 0.0 **** -0.24
30352 H 229.7331705979026 153.6191077904404 243.01293317027302 H 0.0 **** 0.06
30353 H 229.01180773469673 153.04816156519092 241.48894075417002 H 0.0 **** 0.06
30354 H 227.98009037661907 153.3309914579412 242.91226763696267 H 0.0 **** 0.06
30355 H 229.11046847252942 151.95624174845625 242.89118574839682 H 0.0 **** 0.06
30356 C 66.5117148513527 152.3625649350621 141.48718691855672 C 0.0 **** -0.24
30357 H 66.53328440062495 153.23398153076636 140.83172948018745 H 0.0 **** 0.06
30358 H 65.49294291093676 152.19978364249633 141.8406760490804 H 0.0 **** 0.06
30359 H 67.16967194683454 152.5336655431574 142.33971763361907 H 0.0 **** 0.06
30360 H 66.85043305866895 151.48513701057357 140.93599567631844 H 0.0 **** 0.06
30361 C 222.38834296067682 89.23429061067787 191.71273277331935 C 0.0 **** -0.24
30362 H 222.83273232850655 89.48182329296591 192.67699738143935 H 0.0 **** 0.06
30363 H 221.3036733652583 89.19898273208204 191.81133188813217 H 0.0 **** 0.06
30364 H 222.75628108304969 88.26260486037518 191.3836554157037 H 0.0 **** 0.06
30365 H 222.66308069244695 89.99347597942446 190.9809921664507 H 0.0 **** 0.06
30366 C 17.483134295665252 54.785281484903265 198.25120016996547 C 0.0 **** -0.24
30367 H 18.151453059277415 54.13700471243874 197.68339929174874 H 0.0 **** 0.06
30368 H 17.200919492253234 54.29176787879456 199.1813639713064 H 0.0 **** 0.06
30369 H 16.58954568675547 54.989499644843704 197.66236156824417 H 0.0 **** 0.06
30370 H 17.992520357936925 55.72266060164944 198.47651507863898 H 0.0 **** 0.06
30371 C 110.61939800146362 124.87753115346052 226.19232077132978 C 0.0 **** -0.24
30372 H 110.80306665761893 123.82382259239432 226.40373900204696 H 0.0 **** 0.06
30373 H 111.21648386867886 125.18464915652223 225.3343297704999 H 0.0 **** 0.06
30374 H 110.8967076311018 125.47526075272779 227.06093015994244 H 0.0 **** 0.06
30375 H 109.56223837377283 125.02426769883726 225.97191779285183 H 0.0 **** 0.06
30376 C 42.57537743545586 239.80961413759718 142.93961232197896 C 0.0 **** -0.24
30377 H 42.84210497424638 240.1495082703343 143.94045045576019 H 0.0 **** 0.06
30378 H 42.4208780719739 240.67358411372282 142.2923848450065 H 0.0 **** 0.06
30379 H 41.658550581391225 239.2226552679087 142.9877409751468 H 0.0 **** 0.06
30380 H 43.38096213213869 239.1945511573524 142.53866918998017 H 0.0 **** 0.06
30381 C 112.45670152522723 56.08713250980534 177.0868854748589 C 0.0 **** -0.24
30382 H 112.53063901529876 56.263500449398265 178.16022846370691 H 0.0 **** 0.06
30383 H 111.40837071517478 56.10918877718106 176.78612706565673 H 0.0 **** 0.06
30384 H 112.88272925637008 55.11202327338816 176.84886251993333 H 0.0 **** 0.06
30385 H 113.00480565520652 56.86283064563321 176.5533024714763 H 0.0 **** 0.06
30386 C 156.50705207417658 185.67011156398894 242.0837332551527 C 0.0 **** -0.24
30387 H 156.84775449471147 184.7981730595813 242.64258357477144 H 0.0 **** 0.06
30388 H 155.61659807149405 186.0806603523434 242.56036407217044 H 0.0 **** 0.06
30389 H 156.26903760913297 185.37627569752905 241.06183787945793 H 0.0 **** 0.06
30390 H 157.29391210732615 186.42411227689126 242.07178422316832 H 0.0 **** 0.06
30391 C 106.74528397532796 30.71282997456369 134.44012467220054 C 0.0 **** -0.24
30392 H 107.07665283923663 30.71836435336661 133.4012384293184 H 0.0 **** 0.06
30393 H 106.79053068014511 31.72507660568249 134.84095138693203 H 0.0 **** 0.06
30394 H 107.39499769211065 30.060251302028334 135.02452756847137 H 0.0 **** 0.06
30395 H 105.72007635392649 30.345074230681405 134.49267583018406 H 0.0 **** 0.06
30396 C 190.19233153327605 56.14486474612559 221.09327251750972 C 0.0 **** -0.24
30397 H 190.37555229658676 55.351310214975115 221.8175120664849 H 0.0 **** 0.06
30398 H 189.19467063557013 56.55574139563308 221.2491592856822 H 0.0 **** 0.06
30399 H 190.26399238947488 55.738256184474466 220.08449763269292 H 0.0 **** 0.06
30400 H 190.93485172926006 56.93253952684367 221.2213419052749 H 0.0 **** 0.06
30401 C 141.38486487377602 217.80606717649485 57.304535587314916 C 0.0 **** -0.24
30402 H 140.7193212713981 217.63950760602287 56.4585951790277 H 0.0 **** 0.06
30403 H 141.79132210734934 218.8166961343018 57.25355317427477 H 0.0 **** 0.06
30404 H 142.2012989971007 217.0833946899433 57.272125932549415 H 0.0 **** 0.06
30405 H 140.82916597872216 217.68320827858344 58.2334887541067 H 0.0 **** 0.06
30406 C 147.79543124980017 79.26708185995616 106.99249919013843 C 0.0 **** -0.24
30407 H 148.68000048169986 79.16029605512844 106.36457034426326 H 0.0 **** 0.06
30408 H 147.157699905094 80.0542185131471 106.58938233745627 H 0.0 **** 0.06
30409 H 148.0991925410325 79.52734241571156 108.00612934152065 H 0.0 **** 0.06
30410 H 147.24468667940826 78.32562956604639 107.00784790054621 H 0.0 **** 0.06
30411 C 162.33722079535795 219.5916779613347 192.89538589388462 C 0.0 **** -0.24
30412 H 162.60111579638357 219.47867075260473 191.84453606894712 H 0.0 **** 0.06
30413 H 163.05239716719967 220.2579419256998 193.3792016328228 H 0.0 **** 0.06
30414 H 162.36145153317815 218.61657847328564 193.3822066326646 H 0.0 **** 0.06
30415 H 161.335206423936 220.01294612132494 192.9754914747413 H 0.0 **** 0.06
30416 C 193.90028797567334 149.82531686725233 216.56011376612415 C 0.0 **** -0.24
30417 H 193.20044154193224 149.3069888772645 217.21449333411 H 0.0 **** 0.06
30418 H 194.91990342311732 149.635097537688 216.8959805848866 H 0.0 **** 0.06
30419 H 193.70111363777994 150.8971790502233 216.59207667098883 H 0.0 **** 0.06
30420 H 193.78014431464908 149.463503007494 215.53949934828728 H 0.0 **** 0.06
30421 C 27.783082513467974 2.5718678208561414 189.58512885855401 C 0.0 **** -0.24
30422 H 27.01311321732257 3.0875088837395595 190.16014551812077 H 0.0 **** 0.06
30423 H 28.429254340864105 2.0132576375602866 190.2618187400443 H 0.0 **** 0.06
30424 H 28.37562503721412 3.3024486599893237 189.03525473162125 H 0.0 **** 0.06
30425 H 27.311273364674122 1.8839361654487732 188.88258295505057 H 0.0 **** 0.06
30426 C 59.5912240750981 46.325785916675926 220.13100614573807 C 0.0 **** -0.24
30427 H 59.86422250414387 46.36455736516584 219.07650806581944 H 0.0 **** 0.06
30428 H 59.46923623125954 47.34024924959991 220.5108622805553 H 0.0 **** 0.06
30429 H 60.37706160635307 45.819642020564885 220.6913687928806 H 0.0 **** 0.06
30430 H 58.655194653686294 45.77927671082705 220.24428974951556 H 0.0 **** 0.06
30431 C 109.39587820092581 162.67583291389002 114.18964058334953 C 0.0 **** -0.24
30432 H 109.64783323791295 161.62047662250103 114.29557608399543 H 0.0 **** 0.06
30433 H 109.61011422320058 163.19601843661323 115.12276839300122 H 0.0 **** 0.06
30434 H 108.33631089772948 162.77377197630446 113.95341264497031 H 0.0 **** 0.06
30435 H 109.98857687894099 163.11169491411545 113.38489082686877 H 0.0 **** 0.06
30436 C 86.69645791937572 49.25219211472475 79.56543585568082 C 0.0 **** -0.24
30437 H 87.36111732501976 48.661142131998446 78.93500238107612 H 0.0 **** 0.06
30438 H 86.07577820360743 48.5842933799635 80.16355252412134 H 0.0 **** 0.06
30439 H 86.06065755304402 49.87635635733386 78.93869232987407 H 0.0 **** 0.06
30440 H 87.28983940581313 49.88466022789612 80.226284608116 H 0.0 **** 0.06
30441 C 152.71385611759877 139.20538365091895 48.15736189570438 C 0.0 **** -0.24
30442 H 152.3422959096297 140.15736839591645 48.53569854479562 H 0.0 **** 0.06
30443 H 153.43885781767167 138.79408131072225 48.859988747300775 H 0.0 **** 0.06
30444 H 153.1933270049178 139.3611001302663 47.190267470080215 H 0.0 **** 0.06
30445 H 151.88257367717202 138.51069307584632 48.04284087171922 H 0.0 **** 0.06
30446 C 163.85571483503992 149.79513860533012 194.9333811861128 C 0.0 **** -0.24
30447 H 163.89393069830334 149.53807250980407 195.9921753795763 H 0.0 **** 0.06
30448 H 163.43607452756493 150.7945648289213 194.81744237544942 H 0.0 **** 0.06
30449 H 163.22814463148427 149.0740414794078 194.40835627524794 H 0.0 **** 0.06
30450 H 164.86185427947356 149.772165716865 194.5172607548245 H 0.0 **** 0.06
30451 C 35.83859402657859 31.888436998541778 208.74628808586078 C 0.0 **** -0.24
30452 H 36.11966422986845 30.95839099323112 209.2403797149939 H 0.0 **** 0.06
30453 H 34.84500430551478 31.78136579163626 208.3095137676065 H 0.0 **** 0.06
30454 H 36.559718400817786 32.115166669174045 207.96154618303444 H 0.0 **** 0.06
30455 H 35.82904633765938 32.69846072158239 209.4765373531294 H 0.0 **** 0.06
30456 C 224.28070050017897 208.51687012606422 38.477291234687954 C 0.0 **** -0.24
30457 H 223.8337041197367 209.49794814404441 38.635966127691816 H 0.0 **** 0.06
30458 H 224.4896703046809 208.05337225219745 39.44163708254378 H 0.0 **** 0.06
30459 H 225.20970932115296 208.6267471929196 37.917509836716704 H 0.0 **** 0.06
30460 H 223.58968260318522 207.88960538342397 37.91545250036563 H 0.0 **** 0.06
30461 C 39.558040346399736 99.50521878713576 44.35467156879625 C 0.0 **** -0.24
30462 H 39.687727860054366 100.42500045497192 43.78475017356443 H 0.0 **** 0.06
30463 H 40.53388333128706 99.07044478098942 44.56817002211696 H 0.0 **** 0.06
30464 H 38.9638851750818 98.79916271421891 43.77378428906766 H 0.0 **** 0.06
30465 H 39.04562905828206 99.72736765289983 45.291135732487916 H 0.0 **** 0.06
30466 C 134.15163800325698 205.66780266773668 21.853463434328646 C 0.0 **** -0.24
30467 H 134.3923909354991 206.01912630927424 20.85041045080584 H 0.0 **** 0.06
30468 H 134.65567844512304 204.71838597739222 22.036383520599188 H 0.0 **** 0.06
30469 H 133.07438991970722 205.5304072857771 21.941415890620007 H 0.0 **** 0.06
30470 H 134.48548340022498 206.4034403540967 22.58543475702956 H 0.0 **** 0.06
30471 C 216.07266122352118 10.874181055163945 76.79177091219589 C 0.0 **** -0.24
30472 H 217.11386779176246 10.553079915553724 76.83784174344072 H 0.0 **** 0.06
30473 H 215.45736494624268 10.056072328568163 76.4176303377464 H 0.0 **** 0.06
30474 H 215.98639407752466 11.730082894612167 76.12221763437552 H 0.0 **** 0.06
30475 H 215.735306568088 11.157349088114671 77.78853179876702 H 0.0 **** 0.06
30476 C 39.40160437996035 22.439829143452798 26.002465231480784 C 0.0 **** -0.24
30477 H 39.223553694964394 22.47129813555098 27.077802031886137 H 0.0 **** 0.06
30478 H 38.68968424706422 21.758304814595704 25.536827085684166 H 0.0 **** 0.06
30479 H 40.416530139803726 22.092193496408015 25.81333111432363 H 0.0 **** 0.06
30480 H 39.275277516158 23.43913793723398 25.585708673325968 H 0.0 **** 0.06
30481 C 5.309959255158461 50.09649279318012 243.6721528766629 C 0.0 **** -0.24
30482 H 4.964612293139126 49.54445879790026 244.5463213464982 H 0.0 **** 0.06
30483 H 6.348757435429334 49.837691354118846 243.4672950617893 H 0.0 **** 0.06
30484 H 5.232233517338429 51.16640448785407 243.86430968811226 H 0.0 **** 0.06
30485 H 4.693099331936878 49.83577947768198 242.81170184452364 H 0.0 **** 0.06
30486 C 152.71726665450345 88.33090112138399 85.7837657895835 C 0.0 **** -0.24
30487 H 151.9960012336206 88.43982894625583 84.97447938771361 H 0.0 **** 0.06
30488 H 153.6930694556619 88.07834988726262 85.36894253089119 H 0.0 **** 0.06
30489 H 152.39154639869636 87.53750608377973 86.4568573163236 H 0.0 **** 0.06
30490 H 152.7884019478158 89.26876650216116 86.3353134973847 H 0.0 **** 0.06
30491 C 168.40577610647333 206.72553498286447 39.68642650274259 C 0.0 **** -0.24
30492 H 167.75240860078765 206.10626345502146 39.07144093286976 H 0.0 **** 0.06
30493 H 169.32675103950484 206.18121908965082 39.89916334966513 H 0.0 **** 0.06
30494 H 167.90175257757437 206.96712912048386 40.62240306629214 H 0.0 **** 0.06
30495 H 168.6422226379369 207.64588347486054 39.15215666182239 H 0.0 **** 0.06
30496 C 47.508749309228705 155.00797220126893 219.89287846531042 C 0.0 **** -0.24
30497 H 47.09440608314097 154.91917343215263 218.8884168968044 H 0.0 **** 0.06
30498 H 47.49742776902909 156.0540594553747 220.19843180849404 H 0.0 **** 0.06
30499 H 48.53392820900271 154.6385133534753 219.89586952478388 H 0.0 **** 0.06
30500 H 46.90791017197873 154.4200940070635 220.58592472457468 H 0.0 **** 0.06
30501 C 245.88673974258353 86.95925738515143 214.6601147978734 C 0.0 **** -0.24
30502 H 246.8492853025901 87.14065790632364 214.18211745192667 H 0.0 **** 0.06
30503 H 245.95699417182828 86.0745446069048 215.29333291925604 H 0.0 **** 0.06
30504 H 245.12613449774875 86.80026469550288 213.8955191150628 H 0.0 **** 0.06
30505 H 245.61593267965281 87.82141734758946 215.26972065789624 H 0.0 **** 0.06
30506 C 164.75172859091168 14.479939806713787 131.93655943815443 C 0.0 **** -0.24
30507 H 163.9997325992236 14.227343516650578 132.68475174060393 H 0.0 **** 0.06
30508 H 164.54833849719395 15.473342845244446 131.53772684933557 H 0.0 **** 0.06
30509 H 164.71795308601799 13.749173092031299 131.12803621615433 H 0.0 **** 0.06
30510 H 165.73962034207514 14.466750346719394 132.39729417516585 H 0.0 **** 0.06
30511 C 103.75601587746507 183.30695524457147 82.85562594219525 C 0.0 **** -0.24
30512 H 103.2786718380263 183.37408703273704 83.83275006464189 H 0.0 **** 0.06
30513 H 103.57153974931808 184.22491774807702 82.29807866713128 H 0.0 **** 0.06
30514 H 103.34433005739052 182.45952098093312 82.30745213433065 H 0.0 **** 0.06
30515 H 104.82912044487216 183.1693228518667 82.98513838495802 H 0.0 **** 0.06
30516 C 238.43079778411996 13.136566855741222 226.08584125008605 C 0.0 **** -0.24
30517 H 237.86976473043038 13.882759300188837 226.64857681750348 H 0.0 **** 0.06
30518 H 239.05559444462344 13.63408185620014 225.3446472685962 H 0.0 **** 0.06
30519 H 237.73638708622045 12.462733903502482 225.58417552228505 H 0.0 **** 0.06
30520 H 239.0608119842121 12.566070673506857 226.76824859354903 H 0.0 **** 0.06
30521 C 79.64890194602839 21.708545856471034 241.07900243907756 C 0.0 **** -0.24
30522 H 80.65011951477061 22.06058115591432 240.8314239813365 H 0.0 **** 0.06
30523 H 79.17368380567447 22.415330384190696 241.7605124803492 H 0.0 **** 0.06
30524 H 79.71425420324692 20.7318111081955 241.55583140121763 H 0.0 **** 0.06
30525 H 79.05686720675368 21.629222615807322 240.16729017130953 H 0.0 **** 0.06
30526 C 219.94459332197945 41.31639978441635 74.74525426378383 C 0.0 **** -0.24
30527 H 219.78368332025818 40.73263682119594 75.65098785191833 H 0.0 **** 0.06
30528 H 220.88303324762836 41.01405843686402 74.2790474454358 H 0.0 **** 0.06
30529 H 219.99004854318048 42.37576601824773 74.99964487611453 H 0.0 **** 0.06
30530 H 219.1220313806007 41.14508231968571 74.05153693002754 H 0.0 **** 0.06
30531 C 54.805072777950926 55.95998202513201 145.184232386612 C 0.0 **** -0.24
30532 H 54.566130023660406 55.59817945467219 144.18401149476523 H 0.0 **** 0.06
30533 H 54.05655647549062 56.688895886223435 145.4948422654021 H 0.0 **** 0.06
30534 H 55.7888067009811 56.429196007350896 145.1760241437727 H 0.0 **** 0.06
30535 H 54.80798679556173 55.12255890210426 145.88168173019432 H 0.0 **** 0.06
30536 C 62.634336072460854 200.25439207022222 101.6589854998467 C 0.0 **** -0.24
30537 H 62.914819625169315 199.78193082633138 102.60092919716641 H 0.0 **** 0.06
30538 H 63.44911122230016 200.14876016303873 100.94207760274668 H 0.0 **** 0.06
30539 H 62.4347074626414 201.3118926654682 101.82961219813163 H 0.0 **** 0.06
30540 H 61.738473164314286 199.7745445006078 101.26550294062167 H 0.0 **** 0.06
30541 C 197.6896855992242 72.30617289094869 144.8643594311106 C 0.0 **** -0.24
30542 H 196.83378388630027 72.98028593212655 144.84869334681247 H 0.0 **** 0.06
30543 H 198.60499156903995 72.878080016848 144.71211689626907 H 0.0 **** 0.06
30544 H 197.58532586367704 71.56816348451758 144.06874034190432 H 0.0 **** 0.06
30545 H 197.73363705421082 71.79858871515793 145.82698714984076 H 0.0 **** 0.06
30546 C 130.0170467757117 63.13733931372724 158.6565581721605 C 0.0 **** -0.24
30547 H 129.4208709294035 63.8965485358961 158.14893498517236 H 0.0 **** 0.06
30548 H 130.98636158502785 63.05044128546055 158.16629487950962 H 0.0 **** 0.06
30549 H 129.49917438904654 62.17975544577564 158.613223594257 H 0.0 **** 0.06
30550 H 130.1604058002726 63.42586138999701 159.69852255932176 H 0.0 **** 0.06
30551 C 93.90984204598632 203.5494713840396 215.16375172305084 C 0.0 **** -0.24
30552 H 93.42090290279478 204.076278527272 214.34404914222415 H 0.0 **** 0.06
30553 H 93.8496757437122 202.47475709546495 214.99136035011446 H 0.0 **** 0.06
30554 H 93.41230515198225 203.7959236345494 216.10129899563702 H 0.0 **** 0.06
30555 H 94.95567063771378 203.85071985240353 215.21716032593497 H 0.0 **** 0.06
30556 C 170.86575567227752 227.7646640366483 225.63692074869869 C 0.0 **** -0.24
30557 H 169.80690386465952 228.01324563076332 225.7106541365751 H 0.0 **** 0.06
30558 H 171.29373847050726 227.7001468156314 226.63682465022524 H 0.0 **** 0.06
30559 H 171.38161792633824 228.53823509977133 225.06867475651367 H 0.0 **** 0.06
30560 H 170.97872511762824 226.80562943196543 225.12982892705824 H 0.0 **** 0.06
30561 C 219.24533187901227 64.30651731486228 76.68656952352663 C 0.0 **** -0.24
30562 H 218.98785941363656 64.9013589246596 75.81104285689375 H 0.0 **** 0.06
30563 H 219.52380055198017 63.30036917717669 76.37274362462443 H 0.0 **** 0.06
30564 H 218.38588284137126 64.25323854081199 77.35542623491429 H 0.0 **** 0.06
30565 H 220.08255915843165 64.77040780794198 77.20718901334604 H 0.0 **** 0.06
30566 C 81.73981403833261 127.78127950496915 49.93161589495659 C 0.0 **** -0.24
30567 H 82.37583746754916 128.2237881894254 49.16570022096866 H 0.0 **** 0.06
30568 H 80.69323862060389 127.94883008737 49.67629399798969 H 0.0 **** 0.06
30569 H 81.9572209341083 128.24139054566527 50.89516435458299 H 0.0 **** 0.06
30570 H 81.9327329594073 126.70971318742718 49.989300319556804 H 0.0 **** 0.06
30571 C 237.15381134933313 96.55150910803471 169.5021441705429 C 0.0 **** -0.24
30572 H 237.08086951396177 95.76539756319809 168.7511330594005 H 0.0 **** 0.06
30573 H 236.79041474919964 96.17577372525088 170.45879792467028 H 0.0 **** 0.06
30574 H 236.54908612573306 97.40459655706272 169.19415102235337 H 0.0 **** 0.06
30575 H 238.19389281288016 96.86092605790085 169.60371811738835 H 0.0 **** 0.06
30576 C 137.3653593040186 57.1600525799289 170.8541721744601 C 0.0 **** -0.24
30577 H 137.20943444288775 58.23752611550424 170.79126114405608 H 0.0 **** 0.06
30578 H 138.43307281480824 56.95089766726406 170.92322037905683 H 0.0 **** 0.06
30579 H 136.9571725008534 56.68122134872905 169.96409534907076 H 0.0 **** 0.06
30580 H 136.86183257917156 56.77221581897166 171.73961841901317 H 0.0 **** 0.06
30581 C 178.10601538322322 149.84586040430767 129.96866158396261 C 0.0 **** -0.24
30582 H 177.7283969399386 149.4202353698912 130.89915404749914 H 0.0 **** 0.06
30583 H 177.7534300747485 150.87256904925488 129.8702871568664 H 0.0 **** 0.06
30584 H 177.74441969881954 149.25478043080776 129.12713464032302 H 0.0 **** 0.06
30585 H 179.19571010985237 149.83387806966226 129.97935697897879 H 0.0 **** 0.06
30586 C 14.151248372437294 90.01380842735648 189.67569331640854 C 0.0 **** -0.24
30587 H 13.77053935328422 90.75881757702354 190.37480817457174 H 0.0 **** 0.06
30588 H 13.322250359654873 89.59175424961958 189.1073623059121 H 0.0 **** 0.06
30589 H 14.654050305344242 89.2212044667327 190.22833581457317 H 0.0 **** 0.06
30590 H 14.858039450875665 90.48479538054227 188.99182327045605 H 0.0 **** 0.06
30591 C 38.38159725937075 42.50385110491746 75.70385363076022 C 0.0 **** -0.24
30592 H 39.170458642249 41.817818407594444 75.39752470135971 H 0.0 **** 0.06
30593 H 38.51461248834198 43.459445992719765 75.19562244462992 H 0.0 **** 0.06
30594 H 38.43111678865108 42.6561221014604 76.78264830161987 H 0.0 **** 0.06
30595 H 37.41125109310691 42.084595844176164 75.44012099850451 H 0.0 **** 0.06
30596 C 136.50237479341328 234.10534826547502 143.32339109949984 C 0.0 **** -0.24
30597 H 135.43937846849005 233.97633050521637 143.52638321010247 H 0.0 **** 0.06
30598 H 137.026044633942 233.17013375165953 143.52178787730233 H 0.0 **** 0.06
30599 H 136.90155801448097 234.88960309281794 143.96618086745465 H 0.0 **** 0.06
30600 H 136.64111132690059 234.38518899993664 142.27926184343332 H 0.0 **** 0.06
30601 C 83.11275229213919 106.1922789599115 199.02938871053246 C 0.0 **** -0.24
30602 H 83.25922539648971 105.99403024640662 200.0910763504447 H 0.0 **** 0.06
30603 H 83.54309797213821 107.16133952257036 198.7773315983611 H 0.0 **** 0.06
30604 H 82.04558393568212 106.19855217375698 198.8052081472254 H 0.0 **** 0.06
30605 H 83.60178074754475 105.41429817887777 198.44326616221915 H 0.0 **** 0.06
30606 C 170.85657661622207 64.64001013749481 122.62119105966585 C 0.0 **** -0.24
30607 H 170.68354754023449 64.79862211933965 121.5567486011725 H 0.0 **** 0.06
30608 H 170.28087025468466 63.77838193886393 122.95797228462291 H 0.0 **** 0.06
30609 H 170.54670126008688 65.52551980800169 123.1753015606063 H 0.0 **** 0.06
30610 H 171.9179585268339 64.45730997335002 122.79293118773467 H 0.0 **** 0.06
30611 C 9.821077652425544 71.57644904641927 71.76729929374031 C 0.0 **** -0.24
30612 H 10.856078886957874 71.46110143919464 72.08715696646198 H 0.0 **** 0.06
30613 H 9.338148064346825 70.59958899307733 71.7403916897766 H 0.0 **** 0.06
30614 H 9.795857864665578 72.02161617360252 70.77257130976955 H 0.0 **** 0.06
30615 H 9.294126457272483 72.22379916413763 72.46813153483109 H 0.0 **** 0.06
30616 C 10.22009067428236 113.23841376332243 134.8360632522487 C 0.0 **** -0.24
30617 H 10.64975727868216 113.5795246475839 135.7780040911149 H 0.0 **** 0.06
30618 H 9.371873188486276 112.58567776694576 135.03885223330064 H 0.0 **** 0.06
30619 H 10.97423091884211 112.69156681007397 134.26987558671703 H 0.0 **** 0.06
30620 H 9.886673024389808 114.09993190226692 134.2574487546994 H 0.0 **** 0.06
30621 C 13.7218975115332 28.69458449885323 7.234674304112303 C 0.0 **** -0.24
30622 H 13.644044503584738 29.07380165748131 8.252622635398495 H 0.0 **** 0.06
30623 H 14.041087279210544 29.49766269316021 6.57007376313652 H 0.0 **** 0.06
30624 H 12.750037132485929 28.319936163641984 6.91170896833755 H 0.0 **** 0.06
30625 H 14.450879330040706 27.884842615904205 7.202797032669608 H 0.0 **** 0.06
30626 C 212.203231836869 121.98158050310664 179.38725349208278 C 0.0 **** -0.24
30627 H 212.13594523389764 122.97026606979912 179.8412126668522 H 0.0 **** 0.06
30628 H 212.1771531238812 121.22048655058597 180.1678721422392 H 0.0 **** 0.06
30629 H 213.1374265938526 121.90042036417617 178.8310334253617 H 0.0 **** 0.06
30630 H 211.36220747691243 121.83597919418983 178.70941807497445 H 0.0 **** 0.06
30631 C 140.65215292442727 116.22204602760536 171.3607419026381 C 0.0 **** -0.24
30632 H 139.80911051475036 116.32622616301688 172.04490458725243 H 0.0 **** 0.06
30633 H 141.47900536244765 116.84230720352645 171.70786392185957 H 0.0 **** 0.06
30634 H 140.3523111148972 116.54121176455368 170.36314444891926 H 0.0 **** 0.06
30635 H 140.96760060936808 115.17896782255781 171.3297711271317 H 0.0 **** 0.06
30636 C 149.099149569565 43.25376353474921 42.415255926387374 C 0.0 **** -0.24
30637 H 149.04822815913846 43.71336965291067 43.402294828816906 H 0.0 **** 0.06
30638 H 149.74241772391298 42.374341485749596 42.458040493712716 H 0.0 **** 0.06
30639 H 149.50964570508344 43.97008210150774 41.703069005857174 H 0.0 **** 0.06
30640 H 148.0989734053144 42.959509356747375 42.09897333558651 H 0.0 **** 0.06
30641 C 183.26880013354577 30.675047889527903 200.6599908876319 C 0.0 **** -0.24
30642 H 182.8087052461173 31.604556483008352 200.3223401011124 H 0.0 **** 0.06
30643 H 184.24729240728306 30.564989484853754 200.1931840960395 H 0.0 **** 0.06
30644 H 182.63558658187804 29.83406769981532 200.3803939084091 H 0.0 **** 0.06
30645 H 183.38305738299852 30.699934712900912 201.743397777778 H 0.0 **** 0.06
30646 C 14.370774708055237 215.43441279780762 89.01620240921264 C 0.0 **** -0.24
30647 H 13.290751960210926 215.57921027493927 88.99359439967805 H 0.0 **** 0.06
30648 H 14.864059733360975 216.3970653624044 89.15294486360673 H 0.0 **** 0.06
30649 H 14.696885736126575 214.98872693657907 88.07694830591228 H 0.0 **** 0.06
30650 H 14.630746935895942 214.77183929750885 89.84227950923025 H 0.0 **** 0.06
30651 C 115.08755688282997 182.81570957040796 146.48899605698332 C 0.0 **** -0.24
30652 H 114.1759361875599 182.7678587748088 147.0843300599414 H 0.0 **** 0.06
30653 H 115.78348524630283 183.52040151170317 146.94437891961027 H 0.0 **** 0.06
30654 H 114.84461587968971 183.145355579629 145.47928038513064 H 0.0 **** 0.06
30655 H 115.54541462086743 181.826502418939 146.44798277574714 H 0.0 **** 0.06
30656 C 13.485817778019523 213.02492095877795 226.88604774690225 C 0.0 **** -0.24
30657 H 13.40663510487768 213.62926070962658 227.7897004117555 H 0.0 **** 0.06
30658 H 13.276847248783866 211.98232879698344 227.12701553990297 H 0.0 **** 0.06
30659 H 14.49440723296864 213.1092664561615 226.4807013234073 H 0.0 **** 0.06
30660 H 12.766411536850413 213.37883487849007 226.14816621268216 H 0.0 **** 0.06
30661 C 41.81481707774432 52.32008887921552 157.2249744517921 C 0.0 **** -0.24
30662 H 41.57710177789792 52.074291917956316 156.19009771658025 H 0.0 **** 0.06
30663 H 41.39044477079344 51.56136351743865 157.88411674311172 H 0.0 **** 0.06
30664 H 41.39508306475588 53.293975682032 157.4733157596641 H 0.0 **** 0.06
30665 H 42.89717273076863 52.347474497630685 157.35275880881727 H 0.0 **** 0.06
30666 C 176.01206386635482 158.30314780162297 176.66346546142336 C 0.0 **** -0.24
30667 H 176.09111382518634 158.87568953441516 177.5875567103006 H 0.0 **** 0.06
30668 H 175.00971271237273 157.8821181521583 176.5815644658598 H 0.0 **** 0.06
30669 H 176.74585788254785 157.4975790239432 176.67107131123078 H 0.0 **** 0.06
30670 H 176.20039949550358 158.95907865900693 175.8133301936461 H 0.0 **** 0.06
30671 C 226.32585860430822 110.48817129616288 8.655242906315777 C 0.0 **** -0.24
30672 H 225.8904446150027 111.3801927213029 8.205431835599228 H 0.0 **** 0.06
30673 H 225.52810851473208 109.83153367583151 9.004206244479036 H 0.0 **** 0.06
30674 H 226.95459475158304 110.7762433100637 9.49843858489433 H 0.0 **** 0.06
30675 H 226.92940510915707 109.9655089198734 7.913665385803455 H 0.0 **** 0.06
30676 C 90.7148176323567 19.791456477314767 148.98782123756746 C 0.0 **** -0.24
30677 H 91.04673984066469 19.618822616657383 147.963487904197 H 0.0 **** 0.06
30678 H 90.77372941380969 18.859183079589826 149.54970760070276 H 0.0 **** 0.06
30679 H 89.68495279180735 20.146107728272312 148.97998201185806 H 0.0 **** 0.06
30680 H 91.3545289462651 20.53951229350966 149.45618487892722 H 0.0 **** 0.06
30681 C 235.99146735031798 233.26675216057683 43.700931898809316 C 0.0 **** -0.24
30682 H 236.00091939330594 234.03100165715932 44.47831722072347 H 0.0 **** 0.06
30683 H 235.0726388500813 232.68408622845232 43.775906428192386 H 0.0 **** 0.06
30684 H 236.8514432407068 232.60839627452194 43.82880127108221 H 0.0 **** 0.06
30685 H 236.04101044258348 233.74399550765625 42.72202851119384 H 0.0 **** 0.06
30686 C 140.11482044240012 74.36770717387108 95.73875840728388 C 0.0 **** -0.24
30687 H 139.4010368874066 74.79095608609157 96.44543581825056 H 0.0 **** 0.06
30688 H 140.78146734557814 73.68121382608106 96.26252398238708 H 0.0 **** 0.06
30689 H 140.69998143368974 75.17022790018447 95.28946488489805 H 0.0 **** 0.06
30690 H 139.57758379486376 73.82911035875881 94.95899382030547 H 0.0 **** 0.06
30691 C 57.18206284548347 58.836010262425475 32.40921262904186 C 0.0 **** -0.24
30692 H 56.957698367510204 58.88941919790827 33.474864374469774 H 0.0 **** 0.06
30693 H 58.26268510364443 58.81405179519541 32.26716357808267 H 0.0 **** 0.06
30694 H 56.76727695733351 59.709998835053995 31.907382770029713 H 0.0 **** 0.06
30695 H 56.74075440128988 57.93204812516288 31.990404949165594 H 0.0 **** 0.06
30696 C 151.90261908434803 63.53543643213081 166.20472757268675 C 0.0 **** -0.24
30697 H 152.18364323906854 62.79829237790051 165.4518287430696 H 0.0 **** 0.06
30698 H 151.24234284456088 63.07269519914257 166.93791404499478 H 0.0 **** 0.06
30699 H 151.38778080499685 64.36667099200818 165.7244243268285 H 0.0 **** 0.06
30700 H 152.7996740040793 63.90345898311364 166.703395246564 H 0.0 **** 0.06
30701 C 114.23878548269204 3.371893260055117 98.03562565400591 C 0.0 **** -0.24
30702 H 113.47582248464266 4.055831186564959 97.66238048526867 H 0.0 **** 0.06
30703 H 114.6141202761894 2.764371237990275 97.21296512791966 H 0.0 **** 0.06
30704 H 113.80350248830555 2.7252369833605457 98.79764464699039 H 0.0 **** 0.06
30705 H 115.05827806922397 3.9448379345822815 98.46951719521823 H 0.0 **** 0.06
30706 C 205.34615231457727 76.88172933993201 49.18709805607557 C 0.0 **** -0.24
30707 H 205.41252456552854 77.92927944828062 49.479657548489996 H 0.0 **** 0.06
30708 H 204.42132592041503 76.71847255733502 48.632860793967154 H 0.0 **** 0.06
30709 H 205.3506820464822 76.25458699647362 50.079055196043996 H 0.0 **** 0.06
30710 H 206.19790439020989 76.62519332352423 48.557768861104464 H 0.0 **** 0.06
30711 C 160.8923739020068 208.42822097377228 147.55380288359387 C 0.0 **** -0.24
30712 H 161.193287538036 208.23065737431318 146.52485527611893 H 0.0 **** 0.06
30713 H 160.51397736826527 209.4488136569474 147.63081088887498 H 0.0 **** 0.06
30714 H 161.75147938125622 208.30877358465008 148.21339416527957 H 0.0 **** 0.06
30715 H 160.11020217795976 207.72793530262837 147.84446751522137 H 0.0 **** 0.06
30716 C 173.32516476057754 145.13022213722147 127.78688895385247 C 0.0 **** -0.24
30717 H 173.92550438749808 144.4724333960405 128.41439820581135 H 0.0 **** 0.06
30718 H 172.2735268282205 145.0273968960486 128.05551732846854 H 0.0 **** 0.06
30719 H 173.46231590363416 144.85876746460173 126.74025745609461 H 0.0 **** 0.06
30720 H 173.64028612538226 146.16334624247966 127.93835080413862 H 0.0 **** 0.06
30721 C 126.78658386295831 103.30518453669274 165.3038028803283 C 0.0 **** -0.24
30722 H 127.59456577749174 104.01111782613586 165.1078130842508 H 0.0 **** 0.06
30723 H 127.05346908867548 102.3280892054481 164.9015174644443 H 0.0 **** 0.06
30724 H 125.87296447503289 103.65856228188127 164.82529336464555 H 0.0 **** 0.06
30725 H 126.62700323661164 103.22553446178617 166.3793076280566 H 0.0 **** 0.06
30726 C 214.44608330056948 134.42829804698889 202.6938560518625 C 0.0 **** -0.24
30727 H 214.31101536370068 133.35441706212077 202.5687887015506 H 0.0 **** 0.06
30728 H 215.3450872793659 134.61598467506286 203.28279591810642 H 0.0 **** 0.06
30729 H 213.5810731043701 134.84620400026043 203.20830482319082 H 0.0 **** 0.06
30730 H 214.54806059006015 134.89803908730298 201.71580720237742 H 0.0 **** 0.06
30731 C 200.68395575978428 140.58097448292293 25.557608309732217 C 0.0 **** -0.24
30732 H 200.2911597129355 141.47155421296762 26.05019799515165 H 0.0 **** 0.06
30733 H 200.4784849858273 140.63708128514918 24.48852676055813 H 0.0 **** 0.06
30734 H 200.2055374881743 139.69462234834197 25.975145645982508 H 0.0 **** 0.06
30735 H 201.7604014297978 140.52310914269427 25.718524094369542 H 0.0 **** 0.06
30736 C 48.978183993131 84.69089936432235 117.47361335256747 C 0.0 **** -0.24
30737 H 49.21884033639641 84.32679985966473 118.47193025347903 H 0.0 **** 0.06
30738 H 48.784690757179504 83.84436688732697 116.8137491881551 H 0.0 **** 0.06
30739 H 49.816233476438526 85.26994018052329 117.08650050130765 H 0.0 **** 0.06
30740 H 48.0912352935061 85.32374433099281 117.52291686201312 H 0.0 **** 0.06
30741 C 25.74357470273371 26.190255617036513 171.03393756302478 C 0.0 **** -0.24
30742 H 26.416489760593862 27.046613442763288 170.97986189505136 H 0.0 **** 0.06
30743 H 25.370094240132858 26.086330323641718 172.05317573761948 H 0.0 **** 0.06
30744 H 26.283234647503164 25.28637806496205 170.75067781043674 H 0.0 **** 0.06
30745 H 24.906437037870376 26.342597395934604 170.35264021075156 H 0.0 **** 0.06
30746 C 178.5335439079142 101.33729447130807 119.02682774884778 C 0.0 **** -0.24
30747 H 177.60478950047215 100.86595835312184 119.3512011471035 H 0.0 **** 0.06
30748 H 179.13896338674206 100.61004748316978 118.48586597427945 H 0.0 **** 0.06
30749 H 179.08365748372103 101.69235885575051 119.8982254221039 H 0.0 **** 0.06
30750 H 178.30407858143823 102.17851684325987 118.37324673027337 H 0.0 **** 0.06
30751 C 193.6372359663298 80.16527812731229 238.11341269033312 C 0.0 **** -0.24
30752 H 192.60719203225062 80.45189482297346 238.32491193486908 H 0.0 **** 0.06
30753 H 194.21291087033958 81.05138938698465 237.8435408275697 H 0.0 **** 0.06
30754 H 193.65434637282533 79.45528476796079 237.2866417238168 H 0.0 **** 0.06
30755 H 194.0748801849424 79.70271430830334 238.99764954389894 H 0.0 **** 0.06
30756 C 202.35780439719912 100.28603293164068 123.28338570867189 C 0.0 **** -0.24
30757 H 202.85131116997087 100.62260577283206 122.3710818301067 H 0.0 **** 0.06
30758 H 201.3645680404598 99.90995912933329 123.04183325816311 H 0.0 **** 0.06
30759 H 202.2713983511794 101.1222002261247 123.9775656738384 H 0.0 **** 0.06
30760 H 202.94630930181182 99.49209329569149 123.7420864726308 H 0.0 **** 0.06
30761 C 44.27520655964159 226.51766987534444 26.10567661471083 C 0.0 **** -0.24
30762 H 43.752195463252605 225.73625476814152 25.556250211942043 H 0.0 **** 0.06
30763 H 43.55190923732013 227.12285350726233 26.65361305191064 H 0.0 **** 0.06
30764 H 44.821201857931754 227.15031130661043 25.405547678818934 H 0.0 **** 0.06
30765 H 44.9749590270666 226.06420450332914 26.80717230446149 H 0.0 **** 0.06
30766 C 75.58411873653068 127.50695990629418 38.58348745587776 C 0.0 **** -0.24
30767 H 75.23669581977575 126.5382749056246 38.94221890408048 H 0.0 **** 0.06
30768 H 75.26119101753136 127.64933130992128 37.55213851296338 H 0.0 **** 0.06
30769 H 76.67282608249468 127.54283849685618 38.63252437194757 H 0.0 **** 0.06
30770 H 75.16594078439604 128.29655122021182 39.20857011894546 H 0.0 **** 0.06
30771 C 57.88446638229388 207.13738383969925 122.01512802817626 C 0.0 **** -0.24
30772 H 58.5982252076131 207.82909051689202 122.46390725323255 H 0.0 **** 0.06
30773 H 58.229836516879175 206.11446202674824 122.16239647805645 H 0.0 **** 0.06
30774 H 57.80137107828483 207.3429741396357 120.9477478842349 H 0.0 **** 0.06
30775 H 56.9102434313121 207.26426759920093 122.4868299664924 H 0.0 **** 0.06
30776 C 77.32631814826286 74.36811519610552 69.6111213166717 C 0.0 **** -0.24
30777 H 77.1814922947562 73.49909890380098 70.25192683490016 H 0.0 **** 0.06
30778 H 78.3573710760503 74.71522601261773 69.69840556569994 H 0.0 **** 0.06
30779 H 76.64812602033416 75.16400674224082 69.91858294303702 H 0.0 **** 0.06
30780 H 77.12066568298218 74.09578003136392 68.57634347477844 H 0.0 **** 0.06
30781 C 13.18496258658169 132.6681956042002 22.75323285828901 C 0.0 **** -0.24
30782 H 12.341923363839186 132.01607474958544 22.522746766158065 H 0.0 **** 0.06
30783 H 12.867764063541102 133.43538290027544 23.45938745628618 H 0.0 **** 0.06
30784 H 13.538948932357954 133.14043265395793 21.837580417914893 H 0.0 **** 0.06
30785 H 13.989593529177768 132.07935265522002 23.19315170619595 H 0.0 **** 0.06
30786 C 0.5542632575609332 80.86736892403229 53.72355740409674 C 0.0 **** -0.24
30787 H 1.2519161654919344 81.67292418447991 53.49668585055841 H 0.0 **** 0.06
30788 H -0.4660133520542189 81.21406373659659 53.559216549409456 H 0.0 **** 0.06
30789 H 0.6723551087827673 80.56616708022932 54.76381233454438 H 0.0 **** 0.06
30790 H 0.758563523799495 80.01638322326062 53.07312115363122 H 0.0 **** 0.06
30791 C 156.60852599465085 146.9511699338755 174.53063908417275 C 0.0 **** -0.24
30792 H 157.15079612528828 147.04601083920102 173.58981079049147 H 0.0 **** 0.06
30793 H 155.61560301998406 147.38897374829244 174.4213259134515 H 0.0 **** 0.06
30794 H 157.15153109936185 147.47323430521544 175.31700718810268 H 0.0 **** 0.06
30795 H 156.51437194453763 145.8973001634259 174.79124239227278 H 0.0 **** 0.06
30796 C 29.172536777714157 71.90113661452529 121.45291988250702 C 0.0 **** -0.24
30797 H 29.066940169510247 71.47035312077563 122.44888951684888 H 0.0 **** 0.06
30798 H 29.337123096411716 72.9752381146439 121.53855212130307 H 0.0 **** 0.06
30799 H 28.26471197200604 71.71623590023867 120.87892823264568 H 0.0 **** 0.06
30800 H 30.022481387819056 71.44170293183544 120.94770465500113 H 0.0 **** 0.06
30801 C 21.783122698848146 22.220585199255837 230.656438055353 C 0.0 **** -0.24
30802 H 22.69190263341673 21.958175475178052 231.19817668000277 H 0.0 **** 0.06
30803 H 21.285953767638134 23.04942256142553 231.16084786353468 H 0.0 **** 0.06
30804 H 21.11580755640483 21.35869398940929 230.62744459210012 H 0.0 **** 0.06
30805 H 22.039970461972956 22.515218446678304 229.6392310758373 H 0.0 **** 0.06
30806 C 30.668930322988658 133.38444167761153 173.04462187791637 C 0.0 **** -0.24
30807 H 30.75006917806074 132.30980069305414 173.20396991573037 H 0.0 **** 0.06
30808 H 31.659538532475224 133.83612345857406 173.10951815687525 H 0.0 **** 0.06
30809 H 30.022797297285294 133.81669731092785 173.80839196470757 H 0.0 **** 0.06
30810 H 30.24619046421705 133.5753045294179 172.05877861341503 H 0.0 **** 0.06
30811 C 220.53635894253867 169.09054631470428 154.85210242088985 C 0.0 **** -0.24
30812 H 220.00335525454514 168.60077506715518 155.66737033259423 H 0.0 **** 0.06
30813 H 221.48330114176167 168.5780680929227 154.68018930263517 H 0.0 **** 0.06
30814 H 220.7280147998198 170.129670588686 155.11654017999874 H 0.0 **** 0.06
30815 H 219.93135430477076 169.0503835809645 153.94711021205498 H 0.0 **** 0.06
30816 C 211.12951684665273 165.6816295541169 126.43028839320246 C 0.0 **** -0.24
30817 H 211.9351540284223 165.79459721240497 127.15698270724656 H 0.0 **** 0.06
30818 H 210.18927669142164 165.51137082152314 126.95447345657925 H 0.0 **** 0.06
30819 H 211.34367935105706 164.831765664471 125.78153006471192 H 0.0 **** 0.06
30820 H 211.05299953120615 166.58700859482587 125.82893620583224 H 0.0 **** 0.06
30821 C 140.00334555998282 80.68334745300353 70.75179013433987 C 0.0 **** -0.24
30822 H 140.05033180644608 79.96150903417669 69.93623378337028 H 0.0 **** 0.06
30823 H 139.4019182105247 81.539829747537 70.44499247434689 H 0.0 **** 0.06
30824 H 141.01077779053355 81.01733328481856 70.999909729167 H 0.0 **** 0.06
30825 H 139.55060921684182 80.21536752562 71.62530839378027 H 0.0 **** 0.06
30826 C 100.81739649902178 109.96460219675052 163.37100439864363 C 0.0 **** -0.24
30827 H 100.73911412501204 109.68309049201721 162.32098363823033 H 0.0 **** 0.06
30828 H 101.0774818789694 109.0865326491921 163.9634932587364 H 0.0 **** 0.06
30829 H 99.86193632757917 110.36345874283833 163.7123764678034 H 0.0 **** 0.06
30830 H 101.59106446835952 110.72410653448341 163.48644966451937 H 0.0 **** 0.06
30831 C 128.3245518945455 159.86902311493373 164.77376314944598 C 0.0 **** -0.24
30832 H 128.897828045786 159.12172510483418 164.22420904166484 H 0.0 **** 0.06
30833 H 128.50347727989205 159.75142501384232 165.84240104859757 H 0.0 **** 0.06
30834 H 127.26275867914251 159.73589588628565 164.56606173063355 H 0.0 **** 0.06
30835 H 128.63313335931218 160.8663752146773 164.46025264091162 H 0.0 **** 0.06
30836 C 27.247102722349354 132.4055621553698 151.1360939071665 C 0.0 **** -0.24
30837 H 26.516534815730978 133.1832446087482 151.36102081619552 H 0.0 **** 0.06
30838 H 26.736804435852378 131.54274134652107 150.70608402829032 H 0.0 **** 0.06
30839 H 27.755008263020983 132.10857623333092 152.05322905814398 H 0.0 **** 0.06
30840 H 27.976570954028404 132.788947243508 150.42357967616215 H 0.0 **** 0.06
30841 C 227.61986476152686 150.27153034450612 61.960802821187 C 0.0 **** -0.24
30842 H 227.86662503857235 150.9702167972101 61.161135278008004 H 0.0 **** 0.06
30843 H 228.52278302957063 149.7489522056046 62.277261764583415 H 0.0 **** 0.06
30844 H 226.88998068634476 149.54818972430465 61.597620841194725 H 0.0 **** 0.06
30845 H 227.20081161068043 150.8184829885912 62.804875580117624 H 0.0 **** 0.06
30846 C 234.34253935928433 233.11057899308273 38.33771368987615 C 0.0 **** -0.24
30847 H 235.09627839041195 233.6921422235125 37.80647997920451 H 0.0 **** 0.06
30848 H 233.3946680267939 233.16935251460353 37.801386184081565 H 0.0 **** 0.06
30849 H 234.21701145879132 233.51179638768224 39.34271364232674 H 0.0 **** 0.06
30850 H 234.662450064758 232.07074550316045 38.398549657647294 H 0.0 **** 0.06
30851 C 129.7317422043037 162.98595420608365 113.34848130002933 C 0.0 **** -0.24
30852 H 129.68689061802414 163.9440427080991 113.86626631914646 H 0.0 **** 0.06
30853 H 129.4524104920747 163.12402978154427 112.30419278891188 H 0.0 **** 0.06
30854 H 129.04222864473377 162.28588615100756 113.81949439053207 H 0.0 **** 0.06
30855 H 130.74633910950143 162.58974602770087 113.40505676175289 H 0.0 **** 0.06
30856 C 136.487741447503 59.89908803910595 138.54960286063877 C 0.0 **** -0.24
30857 H 136.21435560102674 58.88385886167208 138.83788478777504 H 0.0 **** 0.06
30858 H 136.0525305025198 60.60716138936192 139.25425108870525 H 0.0 **** 0.06
30859 H 136.11183659511173 60.10533920473111 137.54708175094908 H 0.0 **** 0.06
30860 H 137.57351237892337 59.998707763953774 138.55701713769662 H 0.0 **** 0.06
30861 C 19.811737490204436 123.10730346542312 5.530707211405826 C 0.0 **** -0.24
30862 H 20.04742522410305 123.13872919971655 4.466554359277453 H 0.0 **** 0.06
30863 H 18.74075171433651 122.94850935301264 5.661089256722619 H 0.0 **** 0.06
30864 H 20.099361458510685 124.05054167295631 5.993930370409885 H 0.0 **** 0.06
30865 H 20.360330628542513 122.28980858405438 5.999669115003201 H 0.0 **** 0.06
30866 C 67.59609845186904 80.88903469136403 150.14367413712782 C 0.0 **** -0.24
30867 H 66.81324454567508 80.32839779067558 149.6320203434539 H 0.0 **** 0.06
30868 H 67.39618051199534 80.89606596657325 151.21549732895588 H 0.0 **** 0.06
30869 H 67.61208846288841 81.91300734052709 149.76954059320684 H 0.0 **** 0.06
30870 H 68.56119191073154 80.41876103068961 149.95617516366121 H 0.0 **** 0.06
30871 C 182.80184239002463 16.391398244336784 11.386470672457591 C 0.0 **** -0.24
30872 H 182.73190672769087 17.342503765100716 10.858152713718795 H 0.0 **** 0.06
30873 H 182.8408718919906 16.57504210817416 12.460562477788784 H 0.0 **** 0.06
30874 H 183.70534120796486 15.86794400444306 11.074741450531945 H 0.0 **** 0.06
30875 H 181.92949909947833 15.781701800519343 11.153601637217264 H 0.0 **** 0.06
30876 C 108.23143779589498 217.1189981287285 51.625378853137676 C 0.0 **** -0.24
30877 H 107.18185111464533 217.08264598403846 51.33321641335735 H 0.0 **** 0.06
30878 H 108.48839185405626 216.20896850525673 52.166546345805585 H 0.0 **** 0.06
30879 H 108.39904460719652 217.98437336567792 52.26662391215038 H 0.0 **** 0.06
30880 H 108.85352254834717 217.2009195776472 50.73389861819729 H 0.0 **** 0.06
30881 C 227.11985729021092 19.264134663215742 44.58101005268762 C 0.0 **** -0.24
30882 H 227.34401573117242 18.674655975563326 45.469813987943866 H 0.0 **** 0.06
30883 H 227.96403252446245 19.216762262726505 43.89212935797164 H 0.0 **** 0.06
30884 H 226.94252549189005 20.300276575038026 44.867814747636956 H 0.0 **** 0.06
30885 H 226.23022302934254 18.864589463956435 44.094536948419815 H 0.0 **** 0.06
30886 C 2.8654332488777783 209.14030463451212 232.98456273082638 C 0.0 **** -0.24
30887 H 3.2516565212239357 209.42126437571022 233.963467097869 H 0.0 **** 0.06
30888 H 2.267033066333454 209.9568716212059 232.5810194952008 H 0.0 **** 0.06
30889 H 2.2453104746818298 208.2488866560215 233.08047052127637 H 0.0 **** 0.06
30890 H 3.6979253558024396 208.93266279090153 232.31139311062992 H 0.0 **** 0.06
30891 C 126.62433697197616 5.583948171690082 103.00677463186088 C 0.0 **** -0.24
30892 H 127.69022853255592 5.366208487383375 102.94105418145165 H 0.0 **** 0.06
30893 H 126.08236622759193 4.673013466419292 103.26079676400613 H 0.0 **** 0.06
30894 H 126.27116268276515 5.962498972257606 102.04751200723516 H 0.0 **** 0.06
30895 H 126.45418486387126 6.335350895133189 103.7787408162691 H 0.0 **** 0.06
30896 C 230.35595873344462 14.279199431888998 234.223825173858 C 0.0 **** -0.24
30897 H 230.22018854923073 13.65832084047608 235.10946155665965 H 0.0 **** 0.06
30898 H 231.41410673047537 14.310872569301836 233.96163209484436 H 0.0 **** 0.06
30899 H 230.00238161879793 15.28930002775607 234.43087487834458 H 0.0 **** 0.06
30900 H 229.7879501224848 13.858114879125452 233.39448834067326 H 0.0 **** 0.06
30901 C 67.94674644791476 204.63072839053427 235.060139024628 C 0.0 **** -0.24
30902 H 68.27088012138756 205.02904241781667 234.09970066246467 H 0.0 **** 0.06
30903 H 66.93087968213828 204.24575496112016 234.97005715155396 H 0.0 **** 0.06
30904 H 67.96962002134566 205.42417121873515 235.8083133786276 H 0.0 **** 0.06
30905 H 68.61522915299832 203.82566240546242 235.36419032845674 H 0.0 **** 0.06
30906 C 200.9392145161077 169.0198696294647 211.52796011108614 C 0.0 **** -0.24
30907 H 200.65145600643916 169.25595964353496 212.55281235499888 H 0.0 **** 0.06
30908 H 200.34381139506914 169.61720441605394 210.83757772162812 H 0.0 **** 0.06
30909 H 200.76445096323278 167.96027621987506 211.3373188489868 H 0.0 **** 0.06
30910 H 201.9961250729457 169.24416214214244 211.3866713814308 H 0.0 **** 0.06
30911 C 226.85753502421494 237.00175674268885 198.34512676935128 C 0.0 **** -0.24
30912 H 227.34367654437807 237.35878779036108 199.25374871221044 H 0.0 **** 0.06
30913 H 226.28019687774298 236.10549630210159 198.5708444047836 H 0.0 **** 0.06
30914 H 227.61385930944445 236.7689639661926 197.5960228641701 H 0.0 **** 0.06
30915 H 226.19182803033925 237.776291241772 197.96142493399896 H 0.0 **** 0.06
30916 C 247.1454749356293 150.8809489177565 209.5247657338531 C 0.0 **** -0.24
30917 H 247.19202046394972 149.7943034086974 209.44710216971842 H 0.0 **** 0.06
30918 H 247.10985156556342 151.31389305697905 208.52515835335885 H 0.0 **** 0.06
30919 H 248.02880494513448 151.24519451663002 210.04829395334514 H 0.0 **** 0.06
30920 H 246.25110023394376 151.16709858788076 210.07827438679493 H 0.0 **** 0.06
30921 C 9.464418147693067 182.26633551537398 138.97584224594135 C 0.0 **** -0.24
30922 H 8.847489836527387 181.43671265007143 138.6301922326354 H 0.0 **** 0.06
30923 H 10.210962457748309 181.89522448223892 139.6786998222622 H 0.0 **** 0.06
30924 H 8.835088479218001 183.00520723151504 139.47140790189073 H 0.0 **** 0.06
30925 H 9.964168991957393 182.72668893674367 138.12391890209796 H 0.0 **** 0.06
30926 C 157.07808718328297 60.20784051263729 49.784209675978886 C 0.0 **** -0.24
30927 H 156.74744588797577 61.24652193521115 49.77473302326726 H 0.0 **** 0.06
30928 H 157.0814956884067 59.83744328259661 50.81000831919606 H 0.0 **** 0.06
30929 H 158.08475154810137 60.143700875734936 49.37102505178672 H 0.0 **** 0.06
30930 H 156.39884884491744 59.604966318982946 49.18166295310094 H 0.0 **** 0.06
30931 C 213.94404522821318 65.26769128961533 131.48294330361344 C 0.0 **** -0.24
30932 H 214.7432050249666 66.00368460126168 131.3986519805711 H 0.0 **** 0.06
30933 H 212.98600115501412 65.7808804908739 131.5747364488927 H 0.0 **** 0.06
30934 H 214.1111237892493 64.650035565732 132.36528605373476 H 0.0 **** 0.06
30935 H 213.93478750446354 64.6372655367463 130.59438592024506 H 0.0 **** 0.06
30936 C 110.85796159114892 241.16977045922346 58.625796478981584 C 0.0 **** -0.24
30937 H 110.52366941664701 242.0904354516589 59.10354147171515 H 0.0 **** 0.06
30938 H 110.23393176057056 240.964861868046 57.75545354851974 H 0.0 **** 0.06
30939 H 110.77699865003683 240.34394664405605 59.3332825968713 H 0.0 **** 0.06
30940 H 111.89540208018173 241.2797430598808 58.31251735029787 H 0.0 **** 0.06
30941 C 68.70955905512884 48.70990580103552 0.6962867649812949 C 0.0 **** -0.24
30942 H 69.51789370852669 48.54507206247638 1.408237949714973 H 0.0 **** 0.06
30943 H 68.27043105627547 47.752149556913565 0.4160062765084973 H 0.0 **** 0.06
30944 H 69.10381466293373 49.203213187129535 -0.19278349018740926 H 0.0 **** 0.06
30945 H 67.94611995661421 49.34036118918516 1.1528963600527788 H 0.0 **** 0.06
30946 C 85.57806224505799 185.15154775554504 93.52804992817082 C 0.0 **** -0.24
30947 H 86.073625828816 184.21347820274988 93.78076484755374 H 0.0 **** 0.06
30948 H 84.76583880787103 184.95596764255396 92.82751650112269 H 0.0 **** 0.06
30949 H 86.29725875140383 185.8309953064444 93.07092852476032 H 0.0 **** 0.06
30950 H 85.17472570539528 185.60414763333426 94.43432889345169 H 0.0 **** 0.06
30951 C 117.78928928185087 224.51100738920658 210.2591732366501 C 0.0 **** -0.24
30952 H 117.83681037136685 225.0267448057211 211.21743740525858 H 0.0 **** 0.06
30953 H 116.96860629790282 223.79423087424797 210.2720740201666 H 0.0 **** 0.06
30954 H 118.72791252693031 223.98509229028366 210.0826476351295 H 0.0 **** 0.06
30955 H 117.62516047121235 225.238054259696 209.46406937738857 H 0.0 **** 0.06
30956 C 36.89935679583877 38.050574487663084 58.32196484839989 C 0.0 **** -0.24
30957 H 37.550501345185126 37.19237859685005 58.48854863883648 H 0.0 **** 0.06
30958 H 36.59509051432687 38.07710788188737 57.27513029216556 H 0.0 **** 0.06
30959 H 37.43694398360046 38.966188371297676 58.56839496111104 H 0.0 **** 0.06
30960 H 36.01668248964046 37.964972279361916 58.95604363215756 H 0.0 **** 0.06
30961 C 36.488810562213004 149.0837527811867 212.636802232294 C 0.0 **** -0.24
30962 H 36.72638985756649 148.90760042275673 213.68571785814237 H 0.0 **** 0.06
30963 H 36.77117728054634 148.21103236498476 212.04817613863077 H 0.0 **** 0.06
30964 H 37.03961577013136 149.95552423131156 212.2815294565001 H 0.0 **** 0.06
30965 H 35.41877428655741 149.26294758223142 212.5321114467041 H 0.0 **** 0.06
30966 C 115.11010575459468 123.99625792690864 200.28692246364514 C 0.0 **** -0.24
30967 H 114.88124777483549 124.09120832370326 201.34894978339742 H 0.0 **** 0.06
30968 H 115.47780534994274 124.95010457833797 199.908331464446 H 0.0 **** 0.06
30969 H 114.20758986715404 123.71405026091219 199.7453308561286 H 0.0 **** 0.06
30970 H 115.87298283539474 123.2302621323704 200.14681331363892 H 0.0 **** 0.06
30971 C 58.31646667561989 25.858115898083696 181.7940568689732 C 0.0 **** -0.24
30972 H 57.29318702439264 26.220443253181173 181.68812185676524 H 0.0 **** 0.06
30973 H 58.30354924970018 24.787404725900473 181.99692700341208 H 0.0 **** 0.06
30974 H 58.80130610193814 26.37993556045504 182.62006386337282 H 0.0 **** 0.06
30975 H 58.8658162134312 26.047397246247982 180.87237350905116 H 0.0 **** 0.06
30976 C 128.52910658987744 137.44985129617692 132.13086593675138 C 0.0 **** -0.24
30977 H 128.0676272464177 136.67660185446334 131.517228683205 H 0.0 **** 0.06
30978 H 128.11462120321485 138.42182691299303 131.86404983914753 H 0.0 **** 0.06
30979 H 129.60549971784988 137.45374829404227 131.95953229894533 H 0.0 **** 0.06
30980 H 128.3291214043796 137.24486931598713 133.18314246602912 H 0.0 **** 0.06
30981 C 141.14418316734236 93.75876153425423 156.62915828702657 C 0.0 **** -0.24
30982 H 141.4430255143427 93.97420596518296 157.6547174086546 H 0.0 **** 0.06
30983 H 142.02131179045506 93.7848904781749 155.98270471230325 H 0.0 **** 0.06
30984 H 140.42405856209274 94.50529425411324 156.29531848604708 H 0.0 **** 0.06
30985 H 140.6881257974008 92.76888735453102 156.58480325026892 H 0.0 **** 0.06
30986 C 76.40180747055834 145.24280278473654 60.57280800796903 C 0.0 **** -0.24
30987 H 76.30335131298105 144.35943002980127 59.94185592555195 H 0.0 **** 0.06
30988 H 77.30734107574571 145.15913230331157 61.17440315199565 H 0.0 **** 0.06
30989 H 75.53457414681714 145.31885374482417 61.227838672457665 H 0.0 **** 0.06
30990 H 76.4625907047616 146.1324016470929 59.945219894780365 H 0.0 **** 0.06
30991 C 215.08935857471116 120.08185119005574 112.73494283335464 C 0.0 **** -0.24
30992 H 214.83208263786685 120.92514575378087 112.09378065160058 H 0.0 **** 0.06
30993 H 215.29577535740103 119.20640814143613 112.1187795798385 H 0.0 **** 0.06
30994 H 214.2564089233568 119.86770235975482 113.40469258294769 H 0.0 **** 0.06
30995 H 215.97372100235742 120.32944612441324 113.32241999738744 H 0.0 **** 0.06
30996 C 114.28488011851746 122.185342417951 55.241078046093236 C 0.0 **** -0.24
30997 H 114.68995904620894 122.82567995072145 54.458264872992316 H 0.0 **** 0.06
30998 H 114.79835354227507 122.390126413953 56.180274044285596 H 0.0 **** 0.06
30999 H 114.43052771408779 121.14049933115868 54.96713960505255 H 0.0 **** 0.06
31000 H 113.21959855617897 122.38471890713308 55.35779042110809 H 0.0 **** 0.06
31001 C 209.82320203122285 35.06884457561459 142.76786568095778 C 0.0 **** -0.24
31002 H 210.79727769087447 35.35727221852632 143.16217478204752 H 0.0 **** 0.06
31003 H 209.93824295550803 34.703813162558475 141.74591546241945 H 0.0 **** 0.06
31004 H 209.15931375325152 35.93337755871137 142.772066316948 H 0.0 **** 0.06
31005 H 209.3977477495986 34.28070516833253 143.38909148365107 H 0.0 **** 0.06
31006 C 62.807043431039375 21.100968657058615 165.51465741981684 C 0.0 **** -0.24
31007 H 61.947371027418 20.53955950959937 165.1495523788107 H 0.0 **** 0.06
31008 H 63.1467401029569 21.7897082830889 164.74034128312098 H 0.0 **** 0.06
31009 H 63.61190542673867 20.41062834789122 165.76539231183943 H 0.0 **** 0.06
31010 H 62.52140162661203 21.664498543970353 166.4029453214825 H 0.0 **** 0.06
31011 C 21.578583927085432 179.9470182107649 178.31073345136187 C 0.0 **** -0.24
31012 H 22.48261789071624 179.9644055420771 178.91836724705445 H 0.0 **** 0.06
31013 H 21.153438191066712 178.94228211604042 178.32182733266364 H 0.0 **** 0.06
31014 H 21.823000238452295 180.22677265202333 177.28648217430492 H 0.0 **** 0.06
31015 H 20.853960857297196 180.65244005015808 178.71785137974618 H 0.0 **** 0.06
31016 C 30.174913931224893 98.38499109243023 133.41536091549804 C 0.0 **** -0.24
31017 H 30.09523369675081 97.30236153115797 133.51304336596922 H 0.0 **** 0.06
31018 H 29.953693905918314 98.67439029809393 132.3868180659068 H 0.0 **** 0.06
31019 H 31.18659605629449 98.69974874293487 133.6720717877451 H 0.0 **** 0.06
31020 H 29.463705458968647 98.86330602140762 134.08817136333533 H 0.0 **** 0.06
31021 C 25.175681901199795 184.1793301584442 120.37526908265247 C 0.0 **** -0.24
31022 H 24.707302229612623 183.25532084039293 120.0351031818387 H 0.0 **** 0.06
31023 H 26.26020441019992 184.07794162793238 120.3215673640739 H 0.0 **** 0.06
31024 H 24.879618456613713 184.37748558157224 121.40577063113335 H 0.0 **** 0.06
31025 H 24.855918442980197 185.00373077583242 119.73954311831386 H 0.0 **** 0.06
31026 C 10.745636350118303 86.90439092626232 112.08230945677099 C 0.0 **** -0.24
31027 H 9.835093271899325 87.25885264919413 112.56637119657228 H 0.0 **** 0.06
31028 H 11.163726776430082 87.70181811327976 111.46826398421177 H 0.0 **** 0.06
31029 H 10.511396202660052 86.04504715528651 111.45388729998649 H 0.0 **** 0.06
31030 H 11.469107500725514 86.61198055119644 112.84261349127442 H 0.0 **** 0.06
31031 C 157.21915387326447 114.50895044224904 94.0862592872189 C 0.0 **** -0.24
31032 H 156.5925484300559 115.22913709249568 93.55999283576054 H 0.0 **** 0.06
31033 H 156.58968124800572 113.85235765679349 94.68786605967259 H 0.0 **** 0.06
31034 H 157.91592388426523 115.03984260284838 94.73501319722496 H 0.0 **** 0.06
31035 H 157.77673840723844 113.91453036501508 93.3623236337169 H 0.0 **** 0.06
31036 C 67.38790466809459 195.56383906716889 153.05491110956163 C 0.0 **** -0.24
31037 H 68.21465133517219 194.85527852091406 153.00723021947712 H 0.0 **** 0.06
31038 H 67.70264416688471 196.5186839725439 152.63197986360598 H 0.0 **** 0.06
31039 H 67.09187320137195 195.70698451377828 154.09395649709475 H 0.0 **** 0.06
31040 H 66.54316374442337 195.17481882166967 152.48590970779964 H 0.0 **** 0.06
31041 C 198.51940163904996 43.5382938079797 134.9642936851029 C 0.0 **** -0.24
31042 H 198.9034965166186 44.30025347642342 134.28494607705187 H 0.0 **** 0.06
31043 H 199.32609068294397 42.86096800050484 135.24243410671465 H 0.0 **** 0.06
31044 H 197.72710720130738 42.97777140880015 134.46993580310306 H 0.0 **** 0.06
31045 H 198.12187222262764 44.01842087578464 135.85952211920738 H 0.0 **** 0.06
31046 C 30.485988882936397 160.587072719381 194.4669822366061 C 0.0 **** -0.24
31047 H 30.56901729228258 159.59041078337808 194.0331598757117 H 0.0 **** 0.06
31048 H 29.92872813150862 160.53021773747997 195.40208519128657 H 0.0 **** 0.06
31049 H 29.964024515389823 161.2439636201067 193.7712293265513 H 0.0 **** 0.06
31050 H 31.483259225382056 160.981505082298 194.66164230798216 H 0.0 **** 0.06
31051 C 246.06580981259646 161.07593231758366 20.872059191273564 C 0.0 **** -0.24
31052 H 245.7925901475935 160.9493834814688 21.918998044580547 H 0.0 **** 0.06
31053 H 247.08226790771434 161.46522485097685 20.806440272425476 H 0.0 **** 0.06
31054 H 245.3772177551018 161.77623854495096 20.39861147342924 H 0.0 **** 0.06
31055 H 246.0110380974428 160.1127485544354 20.363203925198462 H 0.0 **** 0.06
31056 C 38.3940916107818 85.64655853469583 75.82426520108251 C 0.0 **** -0.24
31057 H 37.34475655562349 85.7526138886619 76.09772957451887 H 0.0 **** 0.06
31058 H 38.68562611887603 86.47274854633474 75.17558710921188 H 0.0 **** 0.06
31059 H 38.53949213332473 84.7023545120922 75.29982357716969 H 0.0 **** 0.06
31060 H 39.00721744141137 85.65878026627786 76.72624520591737 H 0.0 **** 0.06
31061 C 150.28411895430173 239.1109837573644 65.51181784089835 C 0.0 **** -0.24
31062 H 149.83736941893068 238.1529470218738 65.24229965188994 H 0.0 **** 0.06
31063 H 150.69945229407944 239.5810843531899 64.62080650041915 H 0.0 **** 0.06
31064 H 151.07685936726259 238.9499977041006 66.2416758319379 H 0.0 **** 0.06
31065 H 149.51938726594622 239.75853524731198 65.94177492072114 H 0.0 **** 0.06
31066 C 44.736349834939816 245.1249766937749 41.29645901315959 C 0.0 **** -0.24
31067 H 44.20871997132406 246.06814627103728 41.15988877444687 H 0.0 **** 0.06
31068 H 44.96812280739033 244.69272217020793 40.32247087360716 H 0.0 **** 0.06
31069 H 44.10822750588781 244.4351141212466 41.86014380154933 H 0.0 **** 0.06
31070 H 45.662879090565696 245.30299831026292 41.844132666883155 H 0.0 **** 0.06
31071 C 103.10464946331714 86.53037672885546 216.70793995384165 C 0.0 **** -0.24
31072 H 102.38362826214973 85.78626854523966 216.36972403731122 H 0.0 **** 0.06
31073 H 104.06879189909623 86.34317920224649 216.23395258053222 H 0.0 **** 0.06
31074 H 103.21224893044496 86.4648191584229 217.79003057664525 H 0.0 **** 0.06
31075 H 102.75326748812614 87.52546699736766 216.436861321569 H 0.0 **** 0.06
31076 C 59.59502607044894 219.94681711214182 223.71078900395807 C 0.0 **** -0.24
31077 H 60.582473737766776 220.14665096628562 224.12430452174078 H 0.0 **** 0.06
31078 H 59.42816751716015 218.87001728181394 223.67096532170797 H 0.0 **** 0.06
31079 H 59.53196311107999 220.36214962907124 222.70443988787656 H 0.0 **** 0.06
31080 H 58.83597887186076 220.4087318077833 224.3426669510252 H 0.0 **** 0.06
31081 C 3.8023558633281596 176.71830792145926 74.62542956821096 C 0.0 **** -0.24
31082 H 3.213513718083746 176.9982404183636 73.75234578809227 H 0.0 **** 0.06
31083 H 4.636500464345403 177.41066948603668 74.73832693596032 H 0.0 **** 0.06
31084 H 4.18480576396891 175.70531442871277 74.49645734055568 H 0.0 **** 0.06
31085 H 3.173637299038006 176.75760266740204 75.51489370896925 H 0.0 **** 0.06
31086 C 73.61924844680578 84.00155463600501 79.1014638533984 C 0.0 **** -0.24
31087 H 74.3975521836056 83.49870083594345 79.6770669596869 H 0.0 **** 0.06
31088 H 73.5056188430791 85.02501031429574 79.46121011567482 H 0.0 **** 0.06
31089 H 72.67698917330046 83.46778713832228 79.22129823661956 H 0.0 **** 0.06
31090 H 73.898245882937 84.01481732583153 78.04827911552587 H 0.0 **** 0.06
31091 C 66.839778560148 163.79726554733426 18.992872212140767 C 0.0 **** -0.24
31092 H 67.82496499501079 163.9897407429403 19.419142746891254 H 0.0 **** 0.06
31093 H 66.07403190154449 163.99670312065535 19.742538323572163 H 0.0 **** 0.06
31094 H 66.77803965942712 162.75575971373505 18.67725460120127 H 0.0 **** 0.06
31095 H 66.6843549727642 164.44675817050995 18.131656556246583 H 0.0 **** 0.06
31096 C 158.52607878383756 199.39877362801974 226.18394286854738 C 0.0 **** -0.24
31097 H 158.77037891107247 198.39472637464428 225.83755706239845 H 0.0 **** 0.06
31098 H 158.33316922325216 199.37610489869905 227.25687511574526 H 0.0 **** 0.06
31099 H 157.6379273107642 199.75669099187036 225.66173725259878 H 0.0 **** 0.06
31100 H 159.36134624311376 200.06771708922176 225.97794412758762 H 0.0 **** 0.06
31101 C 180.4383542848411 105.16795049039297 134.69952563386707 C 0.0 **** -0.24
31102 H 180.4374763814922 104.14316609160113 134.32966251942315 H 0.0 **** 0.06
31103 H 180.71662077534756 105.17336379229215 135.75378889964063 H 0.0 **** 0.06
31104 H 179.4432565568404 105.59725415641961 134.58496369137544 H 0.0 **** 0.06
31105 H 181.15702271468663 105.75863975398713 134.13051995619549 H 0.0 **** 0.06
31106 C 171.36954592500592 109.94288070795386 120.18510015898556 C 0.0 **** -0.24
31107 H 170.329206776312 110.06715050899413 119.88362869023877 H 0.0 **** 0.06
31108 H 171.96824842502306 110.7483203514075 119.76021092348583 H 0.0 **** 0.06
31109 H 171.74031835275906 108.98424605076647 119.82141213892103 H 0.0 **** 0.06
31110 H 171.43817593293588 109.97154303658363 121.27215901363519 H 0.0 **** 0.06
31111 C 23.468326353807342 90.04886446913304 35.38981719358142 C 0.0 **** -0.24
31112 H 23.212927854902006 90.78953875974736 34.632033074815496 H 0.0 **** 0.06
31113 H 23.034844733436643 89.08635800245082 35.116605620085934 H 0.0 **** 0.06
31114 H 23.071491301888415 90.36586674399243 36.354255925919546 H 0.0 **** 0.06
31115 H 24.551553915817294 89.95517856961658 35.45559374291291 H 0.0 **** 0.06
31116 C 232.32028483661537 107.39495375344643 143.67449846403215 C 0.0 **** -0.24
31117 H 232.23517643574323 106.42559032141963 143.18251810457608 H 0.0 **** 0.06
31118 H 232.29170715228116 107.25659597685575 144.75578150778082 H 0.0 **** 0.06
31119 H 231.49041530706288 108.03124352750982 143.36703227692962 H 0.0 **** 0.06
31120 H 233.26218838635748 107.86409126027786 143.3925689362876 H 0.0 **** 0.06
31121 C 76.41612767372908 189.89620793704557 44.50220777801624 C 0.0 **** -0.24
31122 H 76.43083020981055 190.04999349718338 43.423202029122976 H 0.0 **** 0.06
31123 H 75.40736198376703 190.06714032576784 44.879456343847096 H 0.0 **** 0.06
31124 H 77.10601362433059 190.59417197116355 44.977986260639184 H 0.0 **** 0.06
31125 H 76.7208214974269 188.8743057248817 44.72712578043304 H 0.0 **** 0.06
31126 C 10.792754686568372 173.71221813600977 100.14009745811725 C 0.0 **** -0.24
31127 H 11.755470923433421 173.92859290165384 100.60264796580924 H 0.0 **** 0.06
31128 H 10.340982771197133 172.84834111430732 100.62895757022349 H 0.0 **** 0.06
31129 H 10.938548635346677 173.49544108994525 99.08173957514347 H 0.0 **** 0.06
31130 H 10.135923851235276 174.57486240537946 100.24760875038643 H 0.0 **** 0.06
31131 C 21.69360280291957 182.48994242740943 208.53416155414232 C 0.0 **** -0.24
31132 H 21.823325252971216 181.40796827621003 208.5718523894877 H 0.0 **** 0.06
31133 H 22.590403988245015 182.97650799609318 208.91797550967166 H 0.0 **** 0.06
31134 H 20.8357537716046 182.7740439810493 209.14388437514552 H 0.0 **** 0.06
31135 H 21.524702259912175 182.79849678360728 207.5023241696659 H 0.0 **** 0.06
31136 C 124.7435640710944 199.27365243291055 59.868102637716646 C 0.0 **** -0.24
31137 H 124.9680341653422 199.78919522043648 60.80202468092418 H 0.0 **** 0.06
31138 H 124.76276300010318 199.98930290233156 59.04509510861192 H 0.0 **** 0.06
31139 H 123.75389542247407 198.8204349514665 59.93237905691004 H 0.0 **** 0.06
31140 H 125.48782807090794 198.4973257609345 59.69239390143517 H 0.0 **** 0.06
31141 C 179.44544281059305 218.16359625403874 139.53073376811392 C 0.0 **** -0.24
31142 H 178.9534390517813 218.98815710555328 140.04782591144067 H 0.0 **** 0.06
31143 H 179.86063832985536 217.47180770048584 140.2637398039083 H 0.0 **** 0.06
31144 H 180.24881373575892 218.55564429559462 138.90603698491745 H 0.0 **** 0.06
31145 H 178.72126525550692 217.64124400749614 138.90682227344297 H 0.0 **** 0.06
31146 C 10.605571563867514 194.72518170431192 174.63902556896852 C 0.0 **** -0.24
31147 H 10.721978042825171 195.64044518977087 174.05791984617304 H 0.0 **** 0.06
31148 H 11.011193083056682 194.87655429245103 175.63941603921626 H 0.0 **** 0.06
31149 H 11.14131821288818 193.913119623968 174.14800900146315 H 0.0 **** 0.06
31150 H 9.547677427353946 194.47226937034043 174.70965075011236 H 0.0 **** 0.06
31151 C 12.597400939239407 203.19083532382757 163.2796401774128 C 0.0 **** -0.24
31152 H 12.077020830624164 204.1412026972933 163.16048914753813 H 0.0 **** 0.06
31153 H 12.960874955395042 202.85230399613275 162.3089148002949 H 0.0 **** 0.06
31154 H 11.91020970524879 202.45018028206675 163.68905425777731 H 0.0 **** 0.06
31155 H 13.439080507271456 203.32106011102832 163.9586266000202 H 0.0 **** 0.06
31156 C 142.44654638589125 169.42472989816778 174.29475513496052 C 0.0 **** -0.24
31157 H 141.6772231677336 168.77381055375795 174.70903445276653 H 0.0 **** 0.06
31158 H 141.97707863847296 170.29860939740843 173.8412055343037 H 0.0 **** 0.06
31159 H 143.01363529038153 168.88236821430058 173.53797607155016 H 0.0 **** 0.06
31160 H 143.1175590359931 169.74599391419528 175.09104089960806 H 0.0 **** 0.06
31161 C 16.987753790902573 71.5295515754037 180.44147982717988 C 0.0 **** -0.24
31162 H 17.41188217566139 72.31454762954951 181.06674286550472 H 0.0 **** 0.06
31163 H 17.127229968432943 70.56332535517393 180.92680534785484 H 0.0 **** 0.06
31164 H 17.487852710233383 71.52643559606864 179.47315140801717 H 0.0 **** 0.06
31165 H 15.92276823730839 71.71419913732726 180.29973491449528 H 0.0 **** 0.06
31166 C 12.379478298137442 196.04007571490536 213.5167160323686 C 0.0 **** -0.24
31167 H 11.451423837510163 196.5230618279515 213.2122346804656 H 0.0 **** 0.06
31168 H 12.337270418577603 194.98047080277527 213.2623904436408 H 0.0 **** 0.06
31169 H 12.509385872821824 196.15126697289952 214.5936896184254 H 0.0 **** 0.06
31170 H 13.218543634949526 196.50548698234456 212.9991300144435 H 0.0 **** 0.06
31171 C 193.138126365014 187.1092502066143 86.30206508653313 C 0.0 **** -0.24
31172 H 194.06700696792217 186.93273677725358 86.84417614664284 H 0.0 **** 0.06
31173 H 193.10271232407723 188.14709551072983 85.97090268086433 H 0.0 **** 0.06
31174 H 192.29149128093056 186.90726790356106 86.95761428011664 H 0.0 **** 0.06
31175 H 193.09288679268985 186.44814996724617 85.43620052977028 H 0.0 **** 0.06
31176 C 113.97455996560797 113.08975816124439 105.20150239435642 C 0.0 **** -0.24
31177 H 113.2129257406487 112.31984947159538 105.3260435060453 H 0.0 **** 0.06
31178 H 114.81392493032686 112.88026031108353 105.8644161697776 H 0.0 **** 0.06
31179 H 113.550939114306 114.06356198692998 105.44511693144315 H 0.0 **** 0.06
31180 H 114.32114087452928 113.09278892867923 104.1672852638921 H 0.0 **** 0.06
31181 C 189.12141341033552 45.481408563130174 97.20979351132905 C 0.0 **** -0.24
31182 H 188.65033666196467 45.66561631266161 96.24442168236723 H 0.0 **** 0.06
31183 H 190.20376671752615 45.44894210323278 97.08501444038166 H 0.0 **** 0.06
31184 H 188.77211398341302 44.52929489228423 97.60886873502176 H 0.0 **** 0.06
31185 H 188.85829455198908 46.283549321097325 97.90011463267402 H 0.0 **** 0.06
31186 C 52.99190721778288 179.36655679512165 173.37100133396913 C 0.0 **** -0.24
31187 H 52.18132916724525 179.3015023059343 174.09784706780863 H 0.0 **** 0.06
31188 H 52.611226430247626 179.11968350590706 172.37968842139514 H 0.0 **** 0.06
31189 H 53.78102554666074 178.66645401176947 173.6433869329507 H 0.0 **** 0.06
31190 H 53.392239794448216 180.38129900858357 173.36462513665415 H 0.0 **** 0.06
31191 C 3.0776306545351133 51.66090567599677 150.65562626732262 C 0.0 **** -0.24
31192 H 3.741785548869501 52.28471773793083 150.05671945916887 H 0.0 **** 0.06
31193 H 2.57445887631971 52.277145647298155 151.4004913726081 H 0.0 **** 0.06
31194 H 3.6609595649772615 50.88780764601772 151.1563581247225 H 0.0 **** 0.06
31195 H 2.3360265450129987 51.19461710934006 150.0071404272519 H 0.0 **** 0.06
31196 C 120.3454664964431 84.750648256716 235.14705473397157 C 0.0 **** -0.24
31197 H 120.94648446183044 85.36478200012036 235.81728955448617 H 0.0 **** 0.06
31198 H 119.47081371162227 85.3157021788125 234.82267663047344 H 0.0 **** 0.06
31199 H 120.0243187751534 83.85020610719832 235.66990522671853 H 0.0 **** 0.06
31200 H 120.94119540226006 84.47202642502714 234.27690214380246 H 0.0 **** 0.06
31201 C 48.15654076842006 71.44422797980809 237.49050753978452 C 0.0 **** -0.24
31202 H 48.23754170002617 70.5890056059338 236.81907167830823 H 0.0 **** 0.06
31203 H 47.18570938479999 71.92149864303445 237.35455271531524 H 0.0 **** 0.06
31204 H 48.948814975527924 72.15808616364367 237.26571065261962 H 0.0 **** 0.06
31205 H 48.2539059083944 71.10530691642535 238.5217592591476 H 0.0 **** 0.06
31206 C 233.02342977593418 140.98449521068372 4.215844961672943 C 0.0 **** -0.24
31207 H 233.9237646199236 140.8718037653192 4.820022400951814 H 0.0 **** 0.06
31208 H 232.53972606413475 141.9310531873237 4.457523027515791 H 0.0 **** 0.06
31209 H 232.33893803620975 140.1626068536877 4.4249409982434145 H 0.0 **** 0.06
31210 H 233.2921541887349 140.97292477152703 3.1586378378038944 H 0.0 **** 0.06
31211 C 106.15495632105021 239.2462067250679 85.90214014756518 C 0.0 **** -0.24
31212 H 106.09280958479323 238.19039332730637 85.63628034832314 H 0.0 **** 0.06
31213 H 105.671138295162 239.84439346868425 85.12956373499952 H 0.0 **** 0.06
31214 H 107.20103593677311 239.5386174667731 85.98660288046187 H 0.0 **** 0.06
31215 H 105.65308311845988 239.41004126698346 86.85610508765794 H 0.0 **** 0.06
31216 C 167.3868122677135 148.07145948584727 114.34230182101041 C 0.0 **** -0.24
31217 H 168.10105336632108 148.84474134983856 114.62479142969872 H 0.0 **** 0.06
31218 H 167.45620785425928 147.88741285159082 113.26917523046475 H 0.0 **** 0.06
31219 H 166.37763258018833 148.40076873328852 114.5901653904418 H 0.0 **** 0.06
31220 H 167.61260779054214 147.1530559663809 114.88285793484764 H 0.0 **** 0.06
31221 C 153.11602185933046 53.26707256500359 87.37508670353455 C 0.0 **** -0.24
31222 H 153.75613604638352 53.202389265516956 86.4955575900301 H 0.0 **** 0.06
31223 H 152.75307911091784 52.27285690375564 87.63424947497901 H 0.0 **** 0.06
31224 H 152.2685809189799 53.91889050394235 87.16129521106112 H 0.0 **** 0.06
31225 H 153.6871251716931 53.67529331253871 88.20932072540353 H 0.0 **** 0.06
31226 C 196.52263732205074 129.62849501361785 37.61117651728249 C 0.0 **** -0.24
31227 H 195.63824575826266 130.2465535618569 37.765010060600076 H 0.0 **** 0.06
31228 H 196.6460316730737 128.95308957551885 38.45734546645265 H 0.0 **** 0.06
31229 H 197.4017213195776 130.26807275552255 37.52485028678804 H 0.0 **** 0.06
31230 H 196.40479704089026 129.04825016706684 36.69650272491826 H 0.0 **** 0.06
31231 C 160.06416696662257 195.38627075173005 244.11756121643845 C 0.0 **** -0.24
31232 H 159.75593027112325 194.9585963686908 245.07140256962646 H 0.0 **** 0.06
31233 H 161.06978044132296 195.04365005573865 243.87430381265222 H 0.0 **** 0.06
31234 H 160.05723327768678 196.47444124250222 244.1882045902126 H 0.0 **** 0.06
31235 H 159.3720870881874 195.06855173733865 243.3368784054926 H 0.0 **** 0.06
31236 C 60.496038666721944 181.32470269768794 49.99618825085531 C 0.0 **** -0.24
31237 H 60.388101518061546 181.54016008936145 48.93313921445822 H 0.0 **** 0.06
31238 H 60.185876968862885 180.29786470596582 50.19276149431231 H 0.0 **** 0.06
31239 H 59.87139426486371 182.00956222147175 50.5701328283681 H 0.0 **** 0.06
31240 H 61.53855014257397 181.45256868279503 50.288348627804254 H 0.0 **** 0.06
31241 C 31.95494067223892 192.57241098999046 59.044421534420565 C 0.0 **** -0.24
31242 H 32.19496658331994 193.54105314071478 59.48318971669454 H 0.0 **** 0.06
31243 H 32.24611227561009 191.77992977528993 59.73434196284566 H 0.0 **** 0.06
31244 H 32.49632805586873 192.4549757450929 58.10566585073465 H 0.0 **** 0.06
31245 H 30.88268722784997 192.5142857583255 58.85661690145946 H 0.0 **** 0.06
31246 C 179.17531703937055 36.72205259793148 35.294204633859835 C 0.0 **** -0.24
31247 H 179.78928492858324 35.870051225449885 35.58380202333174 H 0.0 **** 0.06
31248 H 179.6712952881195 37.645533439286595 35.592530426606885 H 0.0 **** 0.06
31249 H 178.20454035611326 36.65454481762757 35.787451956082776 H 0.0 **** 0.06
31250 H 179.03373024463994 36.71768798592845 34.21308035492834 H 0.0 **** 0.06
31251 C 121.01190189939078 22.284174592453354 179.6755635801899 C 0.0 **** -0.24
31252 H 121.67570337958992 21.55841931627603 180.14473245906518 H 0.0 **** 0.06
31253 H 120.55194647943839 21.83870902352905 178.7926581371097 H 0.0 **** 0.06
31254 H 121.58561547877432 23.16313800148137 179.38185177861618 H 0.0 **** 0.06
31255 H 120.23534303234572 22.57701362773102 180.38219940915485 H 0.0 **** 0.06
31256 C 183.04468556410183 7.6767477449122055 147.02500439000335 C 0.0 **** -0.24
31257 H 182.24866879162988 7.162255063861124 146.4856796650099 H 0.0 **** 0.06
31258 H 183.8810746069369 7.858060896176966 146.3503085513398 H 0.0 **** 0.06
31259 H 183.3756372470104 7.0585755077661645 147.85875412776403 H 0.0 **** 0.06
31260 H 182.6695878649216 8.627565330309409 147.40370242937814 H 0.0 **** 0.06
31261 C 210.42565044607358 163.43008834582022 25.58668183235372 C 0.0 **** -0.24
31262 H 210.14064473108095 162.3807680074909 25.50866169502487 H 0.0 **** 0.06
31263 H 210.50603860458483 163.85959676730647 24.588129966729156 H 0.0 **** 0.06
31264 H 211.3863609088643 163.50897295025473 26.095879434955208 H 0.0 **** 0.06
31265 H 209.66787047244833 163.97075899484446 26.15435280814458 H 0.0 **** 0.06
31266 C 124.86819026394559 184.82258298399887 92.5800941521178 C 0.0 **** -0.24
31267 H 124.41095276492155 184.87549491052928 91.59201127742455 H 0.0 **** 0.06
31268 H 125.31757362843734 185.78450226367505 92.82433675351561 H 0.0 **** 0.06
31269 H 125.63714172042657 184.05008756028246 92.58384201157355 H 0.0 **** 0.06
31270 H 124.1056214503854 184.57889963271288 93.32032371451959 H 0.0 **** 0.06
31271 C 38.20587574755329 218.24405425477488 20.872045830056976 C 0.0 **** -0.24
31272 H 39.17314617507962 218.27337794234074 21.373464426032086 H 0.0 **** 0.06
31273 H 37.43052877578734 218.59022203602046 21.556000153337976 H 0.0 **** 0.06
31274 H 37.987566260770876 217.22144778411814 20.56321812795798 H 0.0 **** 0.06
31275 H 38.232215794147194 218.89052712399092 19.99473539341753 H 0.0 **** 0.06
31276 C 182.29423542413727 110.17430137376701 139.70264756348897 C 0.0 **** -0.24
31277 H 183.21578106515608 110.73642978992953 139.55123143195058 H 0.0 **** 0.06
31278 H 181.66153760046467 110.27237550837643 138.82007433452986 H 0.0 **** 0.06
31279 H 181.7683839701001 110.56645175479846 140.57289574155703 H 0.0 **** 0.06
31280 H 182.53199212872875 109.12231580585765 139.86408700941496 H 0.0 **** 0.06
31281 C 0.6390350815139243 188.88454913672564 153.13659189606375 C 0.0 **** -0.24
31282 H 1.4650097913221742 188.67250725611473 153.81599942868124 H 0.0 **** 0.06
31283 H -0.3042508843800249 188.8062772743999 153.67720790759967 H 0.0 **** 0.06
31284 H 0.64976019094793 188.1656272734723 152.31663768565525 H 0.0 **** 0.06
31285 H 0.7472661274134538 189.89247469955606 152.73728291851626 H 0.0 **** 0.06
31286 C 245.18599080172623 178.8481399340041 53.23894325714231 C 0.0 **** -0.24
31287 H 245.17768653408388 179.31788331150182 52.25469492423542 H 0.0 **** 0.06
31288 H 244.21151418820227 178.40042271231513 53.43623795220816 H 0.0 **** 0.06
31289 H 245.40153295064835 179.60026399462186 53.99836972236338 H 0.0 **** 0.06
31290 H 245.95296501531243 178.07472669392084 53.264925462137455 H 0.0 **** 0.06
31291 C 33.73207938511955 25.21885436302898 213.84446183286641 C 0.0 **** -0.24
31292 H 33.08489895792387 25.38603745552733 214.70603648838886 H 0.0 **** 0.06
31293 H 33.671816621543115 26.076036650491744 213.17358889560083 H 0.0 **** 0.06
31294 H 33.41020689822358 24.32072569814143 213.31793114392588 H 0.0 **** 0.06
31295 H 34.76141837938279 25.093169496381677 214.18245759111198 H 0.0 **** 0.06
31296 C 157.8087941895393 232.8352733719646 8.0909541344881 C 0.0 **** -0.24
31297 H 158.0524419977418 232.32228631868787 9.02118507104015 H 0.0 **** 0.06
31298 H 157.35806291560627 232.1288131365268 7.393476658503772 H 0.0 **** 0.06
31299 H 158.7178873760173 233.24738335193024 7.655054496784118 H 0.0 **** 0.06
31300 H 157.10524334099057 233.6427991551796 8.294868056170657 H 0.0 **** 0.06
31301 C 25.937344113675536 234.44933044028855 120.90615377345355 C 0.0 **** -0.24
31302 H 26.243366317589988 233.4181040207709 121.0840049959811 H 0.0 **** 0.06
31303 H 25.001535106667134 234.64561560016915 121.4293546971162 H 0.0 **** 0.06
31304 H 25.79708570501215 234.6064061547618 119.83730516166514 H 0.0 **** 0.06
31305 H 26.709562665905764 235.12494944255027 121.27442954433357 H 0.0 **** 0.06
31306 C 116.84637780330743 7.135023080306297 134.49984571823217 C 0.0 **** -0.24
31307 H 117.57367095396225 7.416708683812857 133.7383376987363 H 0.0 **** 0.06
31308 H 115.86560138090763 7.01623635012632 134.03966326733857 H 0.0 **** 0.06
31309 H 116.79919290465142 7.912029317076048 135.26223174486216 H 0.0 **** 0.06
31310 H 117.14849178260386 6.193725519306156 134.96013543647405 H 0.0 **** 0.06
31311 C 187.7773014128712 155.9045335631377 52.39335448311178 C 0.0 **** -0.24
31312 H 188.03645295012024 154.91056506487865 52.028378214594085 H 0.0 **** 0.06
31313 H 186.71422848050565 156.08309912036754 52.23642189557577 H 0.0 **** 0.06
31314 H 188.35664327864004 156.65262855124527 51.85143523752791 H 0.0 **** 0.06
31315 H 188.0046690369109 155.97036931514856 53.45742599765535 H 0.0 **** 0.06
31316 C 103.71077034483142 191.89100279014164 245.9729330069362 C 0.0 **** -0.24
31317 H 102.75857076111404 191.85127418341537 246.5030444773841 H 0.0 **** 0.06
31318 H 103.82192176036344 190.99468428378043 245.36069196685253 H 0.0 **** 0.06
31319 H 104.52601430536748 191.94111466999647 246.69444159976368 H 0.0 **** 0.06
31320 H 103.73528466641585 192.7727943412034 245.3339617545368 H 0.0 **** 0.06
31321 C 222.93705486187483 178.79527531147443 22.40759105757047 C 0.0 **** -0.24
31322 H 222.17536816234076 178.14697844366336 21.97566270537807 H 0.0 **** 0.06
31323 H 223.57766689373173 179.18113314226878 21.614211240499202 H 0.0 **** 0.06
31324 H 223.53822758170406 178.22705471999637 23.117575065784322 H 0.0 **** 0.06
31325 H 222.45657154411685 179.62729566087216 22.922920558263527 H 0.0 **** 0.06
31326 C 164.60916417212925 90.1232715356494 215.28461264826103 C 0.0 **** -0.24
31327 H 165.0424246445726 89.26680332243652 214.7692155974479 H 0.0 **** 0.06
31328 H 163.794491710227 89.78677398257017 215.92657195749257 H 0.0 **** 0.06
31329 H 164.22574179336206 90.83282602578521 214.55208465284971 H 0.0 **** 0.06
31330 H 165.37524755492993 90.60649940248769 215.89242402126945 H 0.0 **** 0.06
31331 C 220.86044300262165 244.86971795519577 202.15209200526533 C 0.0 **** -0.24
31332 H 220.84233520483173 244.0107725257098 202.8234625685097 H 0.0 **** 0.06
31333 H 221.05701417820507 245.77511152676306 202.7269344441558 H 0.0 **** 0.06
31334 H 219.8971866825686 244.95916441415602 201.6499793080318 H 0.0 **** 0.06
31335 H 221.64693424272946 244.7330325380471 201.40956981719393 H 0.0 **** 0.06
31336 C 164.31924231981614 22.52899608576982 24.53401201561431 C 0.0 **** -0.24
31337 H 165.1286221801251 22.671783181603786 23.817721110699466 H 0.0 **** 0.06
31338 H 163.9170299192307 21.52127701988374 24.43081784738817 H 0.0 **** 0.06
31339 H 163.53060193992076 23.256996865661478 24.339955840044354 H 0.0 **** 0.06
31340 H 164.70095570547414 22.667611556535775 25.545082340848268 H 0.0 **** 0.06
31341 C 81.28721410129688 145.3336320248496 113.90864444669026 C 0.0 **** -0.24
31342 H 80.47729095989467 144.8707306584542 114.47194933201897 H 0.0 **** 0.06
31343 H 81.53240445175976 144.71167954975292 113.04735391135333 H 0.0 **** 0.06
31344 H 82.16467058258226 145.43220510347902 114.54843663890833 H 0.0 **** 0.06
31345 H 80.97398690432908 146.32106773804082 113.56748023640066 H 0.0 **** 0.06
31346 C 195.08246915097442 146.85994860261744 175.1545251784823 C 0.0 **** -0.24
31347 H 195.51141161984958 147.62866196417545 174.51075603712525 H 0.0 **** 0.06
31348 H 194.97386152277042 147.25197826853415 176.16534696535984 H 0.0 **** 0.06
31349 H 195.7403657955786 145.99164434683098 175.16976600659316 H 0.0 **** 0.06
31350 H 194.1052007032526 146.56870221673736 174.76985455263554 H 0.0 **** 0.06
31351 C 56.40753263564531 158.9063413944786 215.78743170641604 C 0.0 **** -0.24
31352 H 57.221887832183455 159.4251773540282 216.29316229700422 H 0.0 **** 0.06
31353 H 56.71101090186377 157.88141418787137 215.56888479175768 H 0.0 **** 0.06
31354 H 56.17070816015493 159.42176620636928 214.8567018856757 H 0.0 **** 0.06
31355 H 55.528839598688336 158.8962408256912 216.43119725388024 H 0.0 **** 0.06
31356 C 180.56993418742343 49.26637531843802 73.59062302326416 C 0.0 **** -0.24
31357 H 180.0650560061402 48.50516700134631 72.99632891805223 H 0.0 **** 0.06
31358 H 180.2586274885847 49.1794761702091 74.63194778208842 H 0.0 **** 0.06
31359 H 180.30572765141557 50.25424541656341 73.21366660462078 H 0.0 **** 0.06
31360 H 181.6481433105318 49.125594107097626 73.52010140327059 H 0.0 **** 0.06
31361 C 215.58202782682258 200.92796289512742 67.02746339755643 C 0.0 **** -0.24
31362 H 214.6520577840597 201.4898862465302 67.11634218946372 H 0.0 **** 0.06
31363 H 215.37670476561584 199.95640923248158 66.57600076607949 H 0.0 **** 0.06
31364 H 216.01671808765383 200.7849601728821 68.01698660197974 H 0.0 **** 0.06
31365 H 216.2809514950364 201.4795432204145 66.39948854938419 H 0.0 **** 0.06
31366 C 19.988436339080323 60.64496935464817 232.40483184817444 C 0.0 **** -0.24
31367 H 20.136460288340515 59.62814914777917 232.76954701607306 H 0.0 **** 0.06
31368 H 20.526070172397965 60.77466416297514 231.46515547068094 H 0.0 **** 0.06
31369 H 20.36731966826372 61.353702422318946 233.14156140221925 H 0.0 **** 0.06
31370 H 18.92541423128432 60.821733047633984 232.24326403870685 H 0.0 **** 0.06
31371 C 35.86066053193498 247.04109758852724 114.57993977904971 C 0.0 **** -0.24
31372 H 35.18977016832699 247.61641721899557 113.9406237159709 H 0.0 **** 0.06
31373 H 35.61300139032471 247.22607918023505 115.62560336632964 H 0.0 **** 0.06
31374 H 36.89091553442039 247.34480529592474 114.39144882969543 H 0.0 **** 0.06
31375 H 35.74824356343308 245.9799721887705 114.36060700245852 H 0.0 **** 0.06
31376 C 171.9931669106421 215.37257181116718 100.24508979784298 C 0.0 **** -0.24
31377 H 171.08366892447182 215.44585462120224 100.84156579423896 H 0.0 **** 0.06
31378 H 172.75126076110178 216.0408666150156 100.65440794492127 H 0.0 **** 0.06
31379 H 171.77555097906546 215.6563320309545 99.21577788894027 H 0.0 **** 0.06
31380 H 172.36146718442413 214.34713991933825 100.2692953569252 H 0.0 **** 0.06
31381 C 141.46613637303503 11.155493911139331 78.92482991982894 C 0.0 **** -0.24
31382 H 141.8163376986666 11.924565912964965 79.6127803901644 H 0.0 **** 0.06
31383 H 140.6030970044793 10.647880975675392 79.35542569704222 H 0.0 **** 0.06
31384 H 142.26348341604637 10.432899434087375 78.7511420287816 H 0.0 **** 0.06
31385 H 141.1820595074802 11.616422661077834 77.97864093544757 H 0.0 **** 0.06
31386 C 205.60548378800726 8.00384728170954 1.4706203138689204 C 0.0 **** -0.24
31387 H 205.52501493804397 9.068133453815136 1.692476753950558 H 0.0 **** 0.06
31388 H 204.66634298312084 7.650066509346601 1.0447573233647063 H 0.0 **** 0.06
31389 H 205.81594701712947 7.457381152641034 2.389954620828888 H 0.0 **** 0.06
31390 H 206.41352081386418 7.841742773958259 0.7577473549754075 H 0.0 **** 0.06
31391 C 18.897606320510064 43.27095903354646 75.32136880702708 C 0.0 **** -0.24
31392 H 18.460092148271883 42.35137759529724 75.7102208329338 H 0.0 **** 0.06
31393 H 19.518444201092365 43.03997461339574 74.45533122142925 H 0.0 **** 0.06
31394 H 19.510243961651994 43.7364265533196 76.09378882409067 H 0.0 **** 0.06
31395 H 18.1023090012651 43.95533191742899 75.02631542695966 H 0.0 **** 0.06
31396 C 7.17992977196154 173.10952372422184 123.2353684349415 C 0.0 **** -0.24
31397 H 6.850075352021406 173.97610920141375 123.80954110455065 H 0.0 **** 0.06
31398 H 7.229491217312159 172.23904261609704 123.88940426818317 H 0.0 **** 0.06
31399 H 8.166916941185221 173.3061954726595 122.81641841101896 H 0.0 **** 0.06
31400 H 6.474487960247117 172.9189195337081 122.42775748683414 H 0.0 **** 0.06
31401 C 8.666363447254952 156.37717030106202 11.511250460365915 C 0.0 **** -0.24
31402 H 8.527711871878154 157.40326984431405 11.171378378084427 H 0.0 **** 0.06
31403 H 9.376149295289196 156.36110849171538 12.338137776924071 H 0.0 **** 0.06
31404 H 9.05027865544534 155.77124979970012 10.689404948061366 H 0.0 **** 0.06
31405 H 7.710560754472937 155.97267945273478 11.84378005557059 H 0.0 **** 0.06
31406 C 63.42630295669662 3.0128695319703525 29.546888864125123 C 0.0 **** -0.24
31407 H 62.47954247588902 3.2915801065441883 30.00998991195567 H 0.0 **** 0.06
31408 H 63.33522847900767 2.0211157042539583 29.103110360069564 H 0.0 **** 0.06
31409 H 64.21101278530475 3.0023116914579475 30.30338247714323 H 0.0 **** 0.06
31410 H 63.67880497899583 3.7358465889504657 28.772178299768626 H 0.0 **** 0.06
31411 C 56.72039822972965 147.99806224126067 95.96151872824586 C 0.0 **** -0.24
31412 H 57.426814634924796 148.59831909426978 95.38685260233942 H 0.0 **** 0.06
31413 H 56.3301244396375 147.19706376683092 95.33297327217983 H 0.0 **** 0.06
31414 H 55.8989496950183 148.62883534832437 96.29968902655125 H 0.0 **** 0.06
31415 H 57.22835399899677 147.56775270304863 96.82458489402617 H 0.0 **** 0.06
31416 C 76.3499720453832 149.9341594774423 84.28993510940097 C 0.0 **** -0.24
31417 H 76.26821805701098 150.01473651080116 85.37381941824387 H 0.0 **** 0.06
31418 H 76.74856503959089 148.95400434960067 84.02836080178488 H 0.0 **** 0.06
31419 H 77.01959810793454 150.70975833992495 83.91777665746287 H 0.0 **** 0.06
31420 H 75.36453194879692 150.05776969684922 83.84113014532193 H 0.0 **** 0.06
31421 C 110.73874048517857 208.21530515045933 222.23089473928098 C 0.0 **** -0.24
31422 H 111.47315117075931 207.73156783327025 222.87566658384893 H 0.0 **** 0.06
31423 H 111.1527378098599 208.32901906251578 221.22904847881156 H 0.0 **** 0.06
31424 H 110.49122996018843 209.19685653409238 222.63629947489733 H 0.0 **** 0.06
31425 H 109.83788878404829 207.60350006033292 222.18478278870748 H 0.0 **** 0.06
31426 C 238.9539517914626 24.25462703323356 230.64712984422096 C 0.0 **** -0.24
31427 H 237.9763464686245 24.021921776089272 230.22371081384387 H 0.0 **** 0.06
31428 H 239.30569604795124 25.205684282798444 230.24568536775794 H 0.0 **** 0.06
31429 H 239.65942395008454 23.466204538144126 230.38609428102413 H 0.0 **** 0.06
31430 H 238.87221523030667 24.325406481733722 231.73203904746902 H 0.0 **** 0.06
31431 C 137.35967708964714 113.58850938201707 244.87961840668214 C 0.0 **** -0.24
31432 H 136.85342095829245 112.92264024082101 244.1807653570142 H 0.0 **** 0.06
31433 H 137.63806169444032 114.50904330525688 244.36684079962782 H 0.0 **** 0.06
31434 H 138.2568361368568 113.09905508910771 245.26151856338197 H 0.0 **** 0.06
31435 H 136.6923386955273 113.82061719265792 245.7092514552123 H 0.0 **** 0.06
31436 C 25.138568209657663 218.96121053872375 163.36082792943634 C 0.0 **** -0.24
31437 H 24.785032012012223 219.74744785486865 164.02957872826212 H 0.0 **** 0.06
31438 H 25.50424128028017 219.4085250474737 162.4366323315252 H 0.0 **** 0.06
31439 H 24.317681996948295 218.2798565243807 163.1366982700744 H 0.0 **** 0.06
31440 H 25.945713886032976 218.41061204036365 163.84412671995295 H 0.0 **** 0.06
31441 C 170.92754290745887 56.78457982387937 248.94078410825915 C 0.0 **** -0.24
31442 H 170.63598048349508 57.07508817230806 247.93113227308226 H 0.0 **** 0.06
31443 H 171.36022947430286 57.64437048251233 249.4545593021378 H 0.0 **** 0.06
31444 H 171.66333421668645 55.98223310391478 248.89001546026049 H 0.0 **** 0.06
31445 H 170.04914840275205 56.439490007697486 249.48664277771002 H 0.0 **** 0.06
31446 C 54.72755337783235 84.48263396410829 176.53688644610276 C 0.0 **** -0.24
31447 H 55.12777851242521 85.4423063005045 176.2110238830483 H 0.0 **** 0.06
31448 H 53.79339118176449 84.28107174113671 176.01182146031357 H 0.0 **** 0.06
31449 H 54.54237931243958 84.51083317995995 177.61026705441174 H 0.0 **** 0.06
31450 H 55.447508967809256 83.69447677494395 176.31349939275174 H 0.0 **** 0.06
31451 C 91.22789113849245 91.77787651429733 230.75656259842137 C 0.0 **** -0.24
31452 H 90.27263841568808 91.25924525334139 230.84267547532082 H 0.0 **** 0.06
31453 H 91.18919490146232 92.47206755903952 229.91673049039508 H 0.0 **** 0.06
31454 H 92.022336997992 91.04987849940161 230.5924430222685 H 0.0 **** 0.06
31455 H 91.42445919574027 92.32971702116419 231.67541547925902 H 0.0 **** 0.06
31456 C 229.63425976596858 82.86759004348306 77.67573033636069 C 0.0 **** -0.24
31457 H 229.38553862430462 83.87869978452065 77.35123770480337 H 0.0 **** 0.06
31458 H 230.32966818719643 82.41941332825306 76.96676889966432 H 0.0 **** 0.06
31459 H 228.72562919010466 82.26795032597792 77.72301932175921 H 0.0 **** 0.06
31460 H 230.09523597513115 82.90670619856323 78.66339852144617 H 0.0 **** 0.06
31461 C 205.333923832185 154.51720203025613 3.0500475820537787 C 0.0 **** -0.24
31462 H 204.73829913524958 154.72009957795598 2.1592628787993533 H 0.0 **** 0.06
31463 H 204.982087448215 155.14128481892428 3.87148193736013 H 0.0 **** 0.06
31464 H 206.38066445347295 154.74093474301645 2.8456256940977056 H 0.0 **** 0.06
31465 H 205.23281684227493 153.46692500521365 3.3222480769977096 H 0.0 **** 0.06
31466 C 211.99712809694532 14.624148475392346 195.64670904798777 C 0.0 **** -0.24
31467 H 211.3493291548983 13.914060551900405 195.13194575488978 H 0.0 **** 0.06
31468 H 212.29313747262776 14.212094452196439 196.6114978858932 H 0.0 **** 0.06
31469 H 211.46062641427577 15.560198636589263 195.79971755355024 H 0.0 **** 0.06
31470 H 212.88562614024667 14.808543184107748 195.04223374287398 H 0.0 **** 0.06
31471 C 210.0547379503127 226.92231755476053 141.3419650428698 C 0.0 **** -0.24
31472 H 209.3411972231575 227.66956737996043 141.68978669598835 H 0.0 **** 0.06
31473 H 210.064207173385 226.90967985176258 140.2516342670238 H 0.0 **** 0.06
31474 H 209.76449292694633 225.9399189272192 141.71527903672666 H 0.0 **** 0.06
31475 H 211.04972947961159 227.1721230804756 141.71184426085242 H 0.0 **** 0.06
31476 C 229.76325415513463 149.88258880621504 57.57066885108861 C 0.0 **** -0.24
31477 H 230.16789211739604 148.88723817666917 57.38686511299355 H 0.0 **** 0.06
31478 H 228.8521061067392 149.80041106369333 58.16275382455851 H 0.0 **** 0.06
31479 H 229.53794521843903 150.36410990682324 56.61926258727323 H 0.0 **** 0.06
31480 H 230.49830273097587 150.47672113548933 58.11402779291879 H 0.0 **** 0.06
31481 C 16.115108041717022 160.62632192463008 9.653546478778168 C 0.0 **** -0.24
31482 H 16.588260319347143 161.4294673778844 9.08777189376751 H 0.0 **** 0.06
31483 H 15.257911429053763 161.02332608663426 10.198843872556836 H 0.0 **** 0.06
31484 H 16.832390060187223 160.20743466482625 10.358537633051398 H 0.0 **** 0.06
31485 H 15.780578068730833 159.84686832667313 8.9687907871225 H 0.0 **** 0.06
31486 C 25.728540757952274 67.44311943691642 175.44210371399421 C 0.0 **** -0.24
31487 H 26.785022498778517 67.40436288867625 175.17515083748177 H 0.0 **** 0.06
31488 H 25.192570856547377 68.05323822031428 174.7141525364896 H 0.0 **** 0.06
31489 H 25.621179488181753 67.88206771415886 176.43356149314158 H 0.0 **** 0.06
31490 H 25.317435255489556 66.43384138892623 175.44468293877068 H 0.0 **** 0.06
31491 C 224.68948620218774 104.91649131656229 182.48356777399596 C 0.0 **** -0.24
31492 H 224.60828452305233 105.90041188621808 182.94443560660375 H 0.0 **** 0.06
31493 H 224.5571851547684 105.0083358560604 181.40521598117436 H 0.0 **** 0.06
31494 H 223.9191491229684 104.26062180566421 182.88997710513536 H 0.0 **** 0.06
31495 H 225.6733260079618 104.49659571830645 182.69464240307033 H 0.0 **** 0.06
31496 C 2.384783866875793 38.228625198335365 55.59624125609764 C 0.0 **** -0.24
31497 H 1.4755941415563285 38.646399053096005 56.02876827265192 H 0.0 **** 0.06
31498 H 3.2491333293062326 38.7790846021705 55.96838507962505 H 0.0 **** 0.06
31499 H 2.3408572609485105 38.31100939963994 54.510883779395044 H 0.0 **** 0.06
31500 H 2.472265367203363 37.1794511966564 55.87805230585397 H 0.0 **** 0.06
31501 C 52.338219739612356 243.89011951564913 24.375841737848518 C 0.0 **** -0.24
31502 H 53.03762976726071 244.5102217279831 23.81466847267788 H 0.0 **** 0.06
31503 H 51.7436090740234 243.29506809194748 23.682256462288876 H 0.0 **** 0.06
31504 H 51.67977775741636 244.52829538084714 24.964571118408458 H 0.0 **** 0.06
31505 H 52.893141023932486 243.22782913725447 25.040003154824788 H 0.0 **** 0.06
31506 C 234.87181536896637 91.64432532965 51.98221915272174 C 0.0 **** -0.24
31507 H 235.30897190147144 91.64490940999988 50.98418689625137 H 0.0 **** 0.06
31508 H 235.6360018209696 91.90984607184501 52.71327070975326 H 0.0 **** 0.06
31509 H 234.48241810171072 90.65154228449126 52.20743274302566 H 0.0 **** 0.06
31510 H 234.06068377892103 92.37157067488067 52.02297849784529 H 0.0 **** 0.06
31511 C 48.59417667685048 42.7631213008309 59.405149566234314 C 0.0 **** -0.24
31512 H 49.43028493536124 43.11781237744293 60.00767656771487 H 0.0 **** 0.06
31513 H 47.95360707462376 42.12402525819269 60.01371871763911 H 0.0 **** 0.06
31514 H 48.97427388595915 42.19340017578752 58.55671245710889 H 0.0 **** 0.06
31515 H 48.01969818293489 43.61568341002132 59.04295365409172 H 0.0 **** 0.06
31516 C 139.64320985236535 171.3043634556269 153.47792999254912 C 0.0 **** -0.24
31517 H 138.5726776003789 171.42974594509647 153.3158945118734 H 0.0 **** 0.06
31518 H 139.82725617522593 171.07898394130828 154.52842634936434 H 0.0 **** 0.06
31519 H 140.1623349912288 172.22287665341213 153.2066383567743 H 0.0 **** 0.06
31520 H 140.00915367566242 170.48384940217016 152.86078789015662 H 0.0 **** 0.06
31521 C 72.76061368900449 12.34461294603561 197.314800386795 C 0.0 **** -0.24
31522 H 73.54410692344231 13.06874514530422 197.0911768640367 H 0.0 **** 0.06
31523 H 73.1639978636438 11.559680002607223 197.9550613160645 H 0.0 **** 0.06
31524 H 72.39559393003879 11.905561924774815 196.38670645935457 H 0.0 **** 0.06
31525 H 71.93989252991776 12.846359839859815 197.82828593806477 H 0.0 **** 0.06
31526 C 50.983467775948355 235.97129193789038 93.74774127607634 C 0.0 **** -0.24
31527 H 51.408293789008994 235.3149514104371 92.988372763603 H 0.0 **** 0.06
31528 H 49.913569019471524 235.78107321981696 93.83414765012992 H 0.0 **** 0.06
31529 H 51.14508504566312 237.01042942981516 93.46057111242146 H 0.0 **** 0.06
31530 H 51.46662338227358 235.77905908943 94.70568478201872 H 0.0 **** 0.06
31531 C 235.7623847197184 2.92905242769163 110.84812628273787 C 0.0 **** -0.24
31532 H 236.38629421158114 3.2960565873283656 110.03269482060799 H 0.0 **** 0.06
31533 H 236.3913598743423 2.6865407758951676 111.70481463035358 H 0.0 **** 0.06
31534 H 235.22920568236913 2.0361946888978366 110.52321593952118 H 0.0 **** 0.06
31535 H 235.0447045492316 3.699631900637854 111.13036735320478 H 0.0 **** 0.06
31536 C 124.76576517033013 24.74299240903474 150.405329008023 C 0.0 **** -0.24
31537 H 123.95982800156335 24.481035217738693 151.09003717072187 H 0.0 **** 0.06
31538 H 125.65711776278212 24.166788302896407 150.65683839027832 H 0.0 **** 0.06
31539 H 124.98462017306022 25.807065561543794 150.49257222903668 H 0.0 **** 0.06
31540 H 124.46285801668031 24.51617313850052 149.3841743562003 H 0.0 **** 0.06
31541 C 101.74375309182349 172.87981314772534 180.5572826394387 C 0.0 **** -0.24
31542 H 100.67400796697328 172.94008960041572 180.35812018868137 H 0.0 **** 0.06
31543 H 102.2944517222397 173.0192963373232 179.62606405888897 H 0.0 **** 0.06
31544 H 101.98111739008172 171.90219052135384 180.97674391145313 H 0.0 **** 0.06
31545 H 102.02506130671296 173.65869121596475 181.2662454135907 H 0.0 **** 0.06
31546 C 156.22261498011486 43.53627589864257 73.80586917940306 C 0.0 **** -0.24
31547 H 156.5675121138234 43.957167090974934 72.86176900788146 H 0.0 **** 0.06
31548 H 156.94844561223255 42.80509536500105 74.16404442386573 H 0.0 **** 0.06
31549 H 155.25899299999955 43.04944657260282 73.65636515257611 H 0.0 **** 0.06
31550 H 156.1165926996936 44.334164082229194 74.54178174524304 H 0.0 **** 0.06
31551 C 162.71081727566758 178.64991410127158 65.92478216122765 C 0.0 **** -0.24
31552 H 162.00462593833285 179.248993321645 65.34863073498346 H 0.0 **** 0.06
31553 H 162.6436277416979 177.60834282020835 65.61107784335238 H 0.0 **** 0.06
31554 H 162.4703034965573 178.72660568242986 66.98502934469806 H 0.0 **** 0.06
31555 H 163.72278077858704 179.01721327886105 65.7542337763202 H 0.0 **** 0.06
31556 C 74.83508429704622 82.82900381596477 142.02285906955927 C 0.0 **** -0.24
31557 H 74.69026850575608 83.79853629829819 142.5001595283367 H 0.0 **** 0.06
31558 H 74.65291009837011 82.03577387745696 142.7474060921242 H 0.0 **** 0.06
31559 H 75.85854985956163 82.75670928386245 141.65275053484208 H 0.0 **** 0.06
31560 H 74.13914295584635 82.72819050387722 141.18953626129547 H 0.0 **** 0.06
31561 C 35.10593224223285 209.91914140800287 117.79905559899828 C 0.0 **** -0.24
31562 H 35.28689512968643 210.99385005128454 117.8305411616783 H 0.0 **** 0.06
31563 H 35.912815249159934 209.39956748484113 118.31690724872206 H 0.0 **** 0.06
31564 H 35.066921713551295 209.58852399712396 116.76096076763031 H 0.0 **** 0.06
31565 H 34.15747588525633 209.69658580823796 118.28772328871386 H 0.0 **** 0.06
31566 C 165.36958804813852 18.179646947717742 34.725450486604714 C 0.0 **** -0.24
31567 H 165.11674015841942 17.160075941522848 34.43503100705112 H 0.0 **** 0.06
31568 H 165.2920000047639 18.278062675302905 35.80885577664306 H 0.0 **** 0.06
31569 H 164.67959289042082 18.87534767154868 34.247233212887295 H 0.0 **** 0.06
31570 H 166.38830556115016 18.405772793215363 34.411952016206925 H 0.0 **** 0.06
31571 C 69.6806635325027 92.95546179734572 83.18716827246269 C 0.0 **** -0.24
31572 H 69.4242627217265 93.97594633158673 82.90242538897999 H 0.0 **** 0.06
31573 H 70.71675585593647 92.75191215789823 82.91590490493826 H 0.0 **** 0.06
31574 H 69.02396072673349 92.25794609910699 82.66851440728479 H 0.0 **** 0.06
31575 H 69.5573243882067 92.83822669286417 84.2642996317663 H 0.0 **** 0.06
31576 C 127.24118154484682 144.22317569173572 118.48743280169785 C 0.0 **** -0.24
31577 H 127.32969002703652 144.8407732712329 117.59323536560936 H 0.0 **** 0.06
31578 H 127.4955652007612 143.19186426338314 118.24322334048455 H 0.0 **** 0.06
31579 H 126.21707409123741 144.2665738296365 118.85856363740055 H 0.0 **** 0.06
31580 H 127.92143067759338 144.59377340920196 119.25371539327779 H 0.0 **** 0.06
31581 C 222.53565142975887 45.31418755469316 153.90566634037884 C 0.0 **** -0.24
31582 H 222.31507381601978 44.25386206264362 154.03329058292013 H 0.0 **** 0.06
31583 H 221.7329837503827 45.90663936324634 154.346463384872 H 0.0 **** 0.06
31584 H 222.61432680282192 45.54324028243114 152.84313794171874 H 0.0 **** 0.06
31585 H 223.47671398575727 45.55179838492654 154.39928958225715 H 0.0 **** 0.06
31586 C 232.76504843754736 25.95033333114347 24.639970360853994 C 0.0 **** -0.24
31587 H 233.13062355098725 25.791633329601183 23.62514982463435 H 0.0 **** 0.06
31588 H 231.9280893902003 25.279560216535316 24.833927960315094 H 0.0 **** 0.06
31589 H 232.43584679646483 26.984145417281184 24.749201439597385 H 0.0 **** 0.06
31590 H 233.5667600219589 25.74755725146977 25.350466646177694 H 0.0 **** 0.06
31591 C 117.51279162307443 214.73203036971333 237.95468312050951 C 0.0 **** -0.24
31592 H 117.58805900554066 214.42518525820674 238.9973122280889 H 0.0 **** 0.06
31593 H 117.91745152409925 215.7374390586483 237.84152705600366 H 0.0 **** 0.06
31594 H 116.46657159521038 214.72478647877296 237.648596939039 H 0.0 **** 0.06
31595 H 118.07892492604549 214.03975121158444 237.3302696079996 H 0.0 **** 0.06
31596 C 67.44352776870127 143.1404576862697 191.95802801484945 C 0.0 **** -0.24
31597 H 67.3945606304022 142.46589750119554 191.10360461924316 H 0.0 **** 0.06
31598 H 67.91833761761 144.07419871737818 191.65585609633263 H 0.0 **** 0.06
31599 H 68.02515266026325 142.67704264776305 192.7546455844247 H 0.0 **** 0.06
31600 H 66.43446223637466 143.34600883142622 192.31716177863012 H 0.0 **** 0.06
31601 C 170.28624557565755 53.24222889150457 132.1853854732156 C 0.0 **** -0.24
31602 H 169.74837728971505 53.47202383148709 133.10423722675205 H 0.0 **** 0.06
31603 H 169.95725702325836 53.91477994927112 131.39278079070158 H 0.0 **** 0.06
31604 H 170.08375670408958 52.21082487905424 131.89458038157312 H 0.0 **** 0.06
31605 H 171.35598629380883 53.37010397436862 132.3492766653473 H 0.0 **** 0.06
31606 C 41.58098660414251 208.4176300012608 130.8619812710239 C 0.0 **** -0.24
31607 H 42.056293785636115 208.7688859969661 129.94575865387645 H 0.0 **** 0.06
31608 H 42.005512976982374 207.45359824610222 131.14426785268827 H 0.0 **** 0.06
31609 H 40.50901164840002 208.30849240419428 130.6952381888687 H 0.0 **** 0.06
31610 H 41.754134192431394 209.13969581457476 131.65966632081657 H 0.0 **** 0.06
31611 C 47.46358157038176 38.21727312918047 206.04704382704062 C 0.0 **** -0.24
31612 H 46.72414776538585 37.41592025356452 206.04407836660545 H 0.0 **** 0.06
31613 H 47.987678844279856 38.22457191279203 207.00295456980928 H 0.0 **** 0.06
31614 H 46.96292585447645 39.17362971268764 205.89884295003793 H 0.0 **** 0.06
31615 H 48.17930287997791 38.05245246190587 205.24104027056575 H 0.0 **** 0.06
31616 C 224.3546786204514 176.48679879662302 119.63438974616128 C 0.0 **** -0.24
31617 H 223.74560437036126 177.31567716112843 119.99413934969343 H 0.0 **** 0.06
31618 H 224.76426334343358 176.7360009883982 118.65488721788654 H 0.0 **** 0.06
31619 H 223.73710538287662 175.59155398924895 119.55347860445426 H 0.0 **** 0.06
31620 H 225.16985814869963 176.3050327164467 120.33390957148112 H 0.0 **** 0.06
31621 C 50.6450204120642 44.712873269080745 158.42804054910332 C 0.0 **** -0.24
31622 H 49.73643635158858 45.30569374142712 158.53211003859147 H 0.0 **** 0.06
31623 H 50.50851101358589 43.749661276589194 158.9207082065978 H 0.0 **** 0.06
31624 H 51.4782021078187 45.243168639711 158.88971105401535 H 0.0 **** 0.06
31625 H 50.85644902401451 44.554967286548816 157.3709652436112 H 0.0 **** 0.06
31626 C 93.69694854912387 240.7009961435072 187.20181639753713 C 0.0 **** -0.24
31627 H 92.62234732990137 240.5734758032424 187.07115136197825 H 0.0 **** 0.06
31628 H 93.88493988010458 241.31215884349172 188.08472635074958 H 0.0 **** 0.06
31629 H 94.114483999958 241.1931547640998 186.3234676011927 H 0.0 **** 0.06
31630 H 94.16522828801675 239.7242579956619 187.32862041247233 H 0.0 **** 0.06
31631 C 159.6065006654375 54.21273032435741 206.57435030507582 C 0.0 **** -0.24
31632 H 158.775057903817 53.78938474801072 206.01022085840802 H 0.0 **** 0.06
31633 H 159.31083854858687 55.17680874525564 206.98788419466882 H 0.0 **** 0.06
31634 H 160.46167133868295 54.34707777901991 205.91296128382436 H 0.0 **** 0.06
31635 H 159.87678094681254 53.536601911182714 207.3852550492903 H 0.0 **** 0.06
31636 C 93.66232327819753 168.68171240893733 84.1362199847976 C 0.0 **** -0.24
31637 H 94.42201515521879 169.14459494658718 83.50572844222285 H 0.0 **** 0.06
31638 H 92.70435443506906 168.6913913567475 83.61647141000213 H 0.0 **** 0.06
31639 H 93.57712718687813 169.23927501890248 85.06970921612825 H 0.0 **** 0.06
31640 H 93.94886678950476 167.65282670561658 84.3527738807993 H 0.0 **** 0.06
31641 C 178.2591406919602 4.194926348650057 9.52774585906954 C 0.0 **** -0.24
31642 H 177.71489983137218 4.7582243340964965 8.770726163486046 H 0.0 **** 0.06
31643 H 178.565308431166 3.2328452015782716 9.114798201212096 H 0.0 **** 0.06
31644 H 177.61458834420608 4.030458948017184 10.391011930751091 H 0.0 **** 0.06
31645 H 179.14082014509137 4.7565194082592654 9.833848995665704 H 0.0 **** 0.06
31646 C 172.8268851703377 238.31551294315204 41.749032958267065 C 0.0 **** -0.24
31647 H 173.15105775399053 237.75377567686488 40.87280869948604 H 0.0 **** 0.06
31648 H 171.86570820290484 238.78745885127057 41.542706817214096 H 0.0 **** 0.06
31649 H 173.56613837289964 239.08182501371707 41.98316985500672 H 0.0 **** 0.06
31650 H 172.7252452047604 237.6377350139123 42.59722572835727 H 0.0 **** 0.06
31651 C 43.56110845733181 206.98816992587535 49.289254113810244 C 0.0 **** -0.24
31652 H 44.53813487692341 206.9223050454639 48.81051434934548 H 0.0 **** 0.06
31653 H 42.80270955082105 207.20824267427025 48.536371204076744 H 0.0 **** 0.06
31654 H 43.57489923217983 207.78237389172108 50.035003022205586 H 0.0 **** 0.06
31655 H 43.32876853506181 206.03910881907052 49.77220001502204 H 0.0 **** 0.06
31656 C 36.87009414205805 230.21938242084465 116.28624063100744 C 0.0 **** -0.24
31657 H 37.6057593709087 230.16492138432648 115.48456038083211 H 0.0 **** 0.06
31658 H 36.12874912949822 230.98295682201532 116.04750586147927 H 0.0 **** 0.06
31659 H 37.370215982301545 230.47727998005098 117.22051177820458 H 0.0 **** 0.06
31660 H 36.37638565360271 229.25363880695824 116.39330961568015 H 0.0 **** 0.06
31661 C 168.27724910616215 14.354867331395752 107.48329241713239 C 0.0 **** -0.24
31662 H 168.3092214192347 14.621983839666171 106.42601140820204 H 0.0 **** 0.06
31663 H 169.19041570932046 14.697350977382115 107.97137262437667 H 0.0 **** 0.06
31664 H 168.19570345401058 13.27293066754126 107.58180596833535 H 0.0 **** 0.06
31665 H 167.41447818860496 14.82918937855888 107.95091674040444 H 0.0 **** 0.06
31666 C 48.92401818920766 112.63891392234532 138.45432444211806 C 0.0 **** -0.24
31667 H 48.274876424961036 112.62144323811461 137.57816331179464 H 0.0 **** 0.06
31668 H 49.955403888063955 112.46730076180651 138.14448247730806 H 0.0 **** 0.06
31669 H 48.61799301562186 111.8570223829825 139.148874495081 H 0.0 **** 0.06
31670 H 48.84699360790407 113.61009250756655 138.94241452727934 H 0.0 **** 0.06
31671 C 165.99605391867627 130.52326718281756 117.9183920847278 C 0.0 **** -0.24
31672 H 165.23661067111536 130.31711360206197 118.67365511125993 H 0.0 **** 0.06
31673 H 165.6564598666309 130.15278822812047 116.95133583516358 H 0.0 **** 0.06
31674 H 166.92636864863638 130.02490054376847 118.19371513225133 H 0.0 **** 0.06
31675 H 166.1638331414853 131.5988535226033 117.85764891079063 H 0.0 **** 0.06
31676 C 137.0188250307993 82.53585929493264 54.96449309656404 C 0.0 **** -0.24
31677 H 137.16389657244414 83.47098796306028 55.504706187384585 H 0.0 **** 0.06
31678 H 136.40580443647679 82.71863180537392 54.08145485405535 H 0.0 **** 0.06
31679 H 136.51884717062086 81.81601222369986 55.6117734785839 H 0.0 **** 0.06
31680 H 137.98722881668036 82.13868138328345 54.65903542286159 H 0.0 **** 0.06
31681 C 202.8733004495354 185.17184184145515 234.55546786536013 C 0.0 **** -0.24
31682 H 203.45637099068614 186.0929724927335 234.58233135005645 H 0.0 **** 0.06
31683 H 203.5457900556327 184.32049533799022 234.44604922629082 H 0.0 **** 0.06
31684 H 202.18570510146623 185.20337178192673 233.7095446528053 H 0.0 **** 0.06
31685 H 202.30728392093266 185.07320618002052 235.48111242629895 H 0.0 **** 0.06
31686 C 183.25355858277004 104.37056878870698 12.040881580873972 C 0.0 **** -0.24
31687 H 182.35371237369583 103.91250078468528 12.449992887561976 H 0.0 **** 0.06
31688 H 183.3550661524378 104.09738345441403 10.989741926837425 H 0.0 **** 0.06
31689 H 184.12419161548559 104.01780866213261 12.593691660280726 H 0.0 **** 0.06
31690 H 183.18216861689558 105.45445840824686 12.12901971325934 H 0.0 **** 0.06
31691 C 34.508478844542225 184.89366339141193 158.2993147167149 C 0.0 **** -0.24
31692 H 34.648867549321324 183.81412281089894 158.35109031598148 H 0.0 **** 0.06
31693 H 33.72786245901793 185.19245005320292 158.99995740196456 H 0.0 **** 0.06
31694 H 34.21420303626911 185.1728480320541 157.2879561021793 H 0.0 **** 0.06
31695 H 35.44078166376468 185.39506277575867 158.55861314903294 H 0.0 **** 0.06
31696 C 92.55793047116532 60.99837604463431 165.04299021249534 C 0.0 **** -0.24
31697 H 92.92368212605135 60.46879896283059 164.16331901830137 H 0.0 **** 0.06
31698 H 91.58509389890588 61.43886782184674 164.8247665506796 H 0.0 **** 0.06
31699 H 93.26186150332774 61.786997944363634 165.31095136904509 H 0.0 **** 0.06
31700 H 92.46259354510676 60.299323849583516 165.87450117370224 H 0.0 **** 0.06
31701 C 27.855698726030965 99.27658274620461 80.43492686676444 C 0.0 **** -0.24
31702 H 27.566895919064535 98.25036300936918 80.21021471973404 H 0.0 **** 0.06
31703 H 28.73435124820824 99.27321843755774 81.08218185807553 H 0.0 **** 0.06
31704 H 27.033429351515892 99.78188434011429 80.94107698236337 H 0.0 **** 0.06
31705 H 28.089551803655468 99.80064634003733 79.50820810840284 H 0.0 **** 0.06
31706 C 11.514169212331097 14.152833001077568 235.85656009436264 C 0.0 **** -0.24
31707 H 12.598238261862349 14.041950259156778 235.83481426280093 H 0.0 **** 0.06
31708 H 11.077816502219122 13.345658775303917 236.4460562043562 H 0.0 **** 0.06
31709 H 11.124316368516844 14.112139375102075 234.83933870216924 H 0.0 **** 0.06
31710 H 11.256305716726018 15.111583594747543 236.30603120812412 H 0.0 **** 0.06
31711 C 64.75749573792936 19.4088153128358 35.16899408627572 C 0.0 **** -0.24
31712 H 63.823254333775026 19.184290242650974 35.68297857419398 H 0.0 **** 0.06
31713 H 65.52696019820613 18.708533727555363 35.492708013289445 H 0.0 **** 0.06
31714 H 65.06714999207816 20.42645866671998 35.406126565004485 H 0.0 **** 0.06
31715 H 64.61104751766965 19.314890740399704 34.092077803003775 H 0.0 **** 0.06
31716 C 176.97609811226312 125.96236622462663 5.32572850843431 C 0.0 **** -0.24
31717 H 177.17890113282647 126.57044123149745 6.206982322033497 H 0.0 **** 0.06
31718 H 176.29219785502875 125.15525822948547 5.590892051465303 H 0.0 **** 0.06
31719 H 177.90964204544252 125.5397157548316 4.952937837849561 H 0.0 **** 0.06
31720 H 176.5238825696899 126.58266017452561 4.551975908176374 H 0.0 **** 0.06
31721 C 149.91823081510256 35.54014829723262 8.722130945633552 C 0.0 **** -0.24
31722 H 150.51832273432393 35.12616421458482 9.533230476670923 H 0.0 **** 0.06
31723 H 150.49778298055742 36.29623822777005 8.191252535831751 H 0.0 **** 0.06
31724 H 149.01660343145846 35.99436704864574 9.132855858943827 H 0.0 **** 0.06
31725 H 149.64217251253694 34.742861518363185 8.031673720473094 H 0.0 **** 0.06
31726 C 49.926358617596435 170.14659258832899 237.06730106707138 C 0.0 **** -0.24
31727 H 49.11225345380532 170.06727292416122 236.3466605568756 H 0.0 **** 0.06
31728 H 50.8579580925997 170.3505394809766 236.53995616383662 H 0.0 **** 0.06
31729 H 50.01648548592745 169.21006398639767 237.61737732669746 H 0.0 **** 0.06
31730 H 49.716657536475395 170.95869170975098 237.76393156392726 H 0.0 **** 0.06
31731 C 139.41302326190547 156.42130439789324 70.44403610416305 C 0.0 **** -0.24
31732 H 139.1534950987579 157.0256690741249 71.31405337624591 H 0.0 **** 0.06
31733 H 139.74512619846524 157.07377813772504 69.6361442591342 H 0.0 **** 0.06
31734 H 138.53923998388444 155.85711857510287 70.11972961561852 H 0.0 **** 0.06
31735 H 140.2149695619819 155.73237769132706 70.70782140741622 H 0.0 **** 0.06
31736 C 143.9977759789908 125.9738602197321 243.60500665343366 C 0.0 **** -0.24
31737 H 144.0512986924924 125.9929264242376 242.5160436708464 H 0.0 **** 0.06
31738 H 143.0711115756554 126.44670995660789 243.93080533706063 H 0.0 **** 0.06
31739 H 144.84807336036974 126.51618470455426 244.01971509944502 H 0.0 **** 0.06
31740 H 144.02104107241004 124.94173325702997 243.95229791612525 H 0.0 **** 0.06
31741 C 126.6203899833811 4.7075370560767595 132.19509215680404 C 0.0 **** -0.24
31742 H 126.7549098346887 3.626329558991145 132.15810120498497 H 0.0 **** 0.06
31743 H 127.44626223842212 5.156847518346936 132.74628694321947 H 0.0 **** 0.06
31744 H 125.67969485992333 4.939484997968847 132.69488552399105 H 0.0 **** 0.06
31745 H 126.60053820467334 5.105265450806868 131.18088379991772 H 0.0 **** 0.06
31746 C 137.88383224217927 16.404429218368833 24.0547301433256 C 0.0 **** -0.24
31747 H 137.41293433843055 16.30748470374185 23.077207519207747 H 0.0 **** 0.06
31748 H 137.31215577984074 17.103830187333045 24.66515694555821 H 0.0 **** 0.06
31749 H 138.90092945321754 16.7760771323684 23.93308864718071 H 0.0 **** 0.06
31750 H 137.9089061771939 15.431010526077827 24.544073490811883 H 0.0 **** 0.06
31751 C 151.53899027222758 92.41133977703285 191.14532151272095 C 0.0 **** -0.24
31752 H 151.70843496052902 93.32755339354676 191.71203721524193 H 0.0 **** 0.06
31753 H 152.37108353634574 91.72564546510071 191.30781362881294 H 0.0 **** 0.06
31754 H 151.46691586431882 92.6499129418097 190.08329481229134 H 0.0 **** 0.06
31755 H 150.61210327795885 91.9453271878291 191.47720450318766 H 0.0 **** 0.06
31756 C 196.8712821992936 152.06831006513525 75.50098810201317 C 0.0 **** -0.24
31757 H 197.30104025463683 151.06714980220593 75.4755380222785 H 0.0 **** 0.06
31758 H 196.14009217831477 152.12971821952218 76.3076124074368 H 0.0 **** 0.06
31759 H 196.38254134055066 152.27861341083857 74.54956419713025 H 0.0 **** 0.06
31760 H 197.66356113630118 152.79807220184705 75.6719205220779 H 0.0 **** 0.06
31761 C 222.81210024288083 80.02204196600874 189.83406079336618 C 0.0 **** -0.24
31762 H 221.90134965355543 79.42626428214001 189.75768078664478 H 0.0 **** 0.06
31763 H 223.65851258206118 79.36672078307865 190.0406470285696 H 0.0 **** 0.06
31764 H 222.70530649881144 80.74467196216685 190.64248552372374 H 0.0 **** 0.06
31765 H 222.98009060497537 80.5490516740393 188.89546313543326 H 0.0 **** 0.06
31766 C 141.1204855224995 191.27555486542332 174.56657124100406 C 0.0 **** -0.24
31767 H 140.45092023233732 190.51838043807385 174.9730472743315 H 0.0 **** 0.06
31768 H 141.02613762768297 191.29817751487099 173.4806360380381 H 0.0 **** 0.06
31769 H 142.1484576685836 191.03491359152162 174.83772177808555 H 0.0 **** 0.06
31770 H 140.85547722490966 192.25089942397005 174.97460452708236 H 0.0 **** 0.06
31771 C 83.85760098175302 54.273252209178935 137.8128559855621 C 0.0 **** -0.24
31772 H 82.9597351968606 53.98111463602871 138.35874448457042 H 0.0 **** 0.06
31773 H 84.02746387298814 55.34227295672636 137.9388988478122 H 0.0 **** 0.06
31774 H 83.72827821893506 54.048025967940674 136.75492861645947 H 0.0 **** 0.06
31775 H 84.71339846778125 53.72019336427448 138.20101980939933 H 0.0 **** 0.06
31776 C 232.24144785396987 25.787560434431356 146.27421968011748 C 0.0 **** -0.24
31777 H 232.5918215000869 24.902722101205057 146.80567523012363 H 0.0 **** 0.06
31778 H 231.18907847635808 25.955963405639153 146.50300276993394 H 0.0 **** 0.06
31779 H 232.36153075230757 25.637062617523867 145.20095406428928 H 0.0 **** 0.06
31780 H 232.82511830307644 26.65324618443944 146.5860827120978 H 0.0 **** 0.06
31781 C 97.53055472929987 3.131821583846232 70.2201907418982 C 0.0 **** -0.24
31782 H 98.38702265279053 3.547612325674521 70.75049378695482 H 0.0 **** 0.06
31783 H 97.3710160688639 3.6896700134768423 69.2956734914651 H 0.0 **** 0.06
31784 H 96.64212859002939 3.2065649542255414 70.84738687888958 H 0.0 **** 0.06
31785 H 97.72219206401473 2.085107725240107 69.98417633859651 H 0.0 **** 0.06
31786 C 207.20011036179065 240.3696306198654 192.3260866207226 C 0.0 **** -0.24
31787 H 207.01435477111158 240.22069060316971 193.38906041456494 H 0.0 **** 0.06
31788 H 207.93552653799006 241.16374823129968 192.1936221166082 H 0.0 **** 0.06
31789 H 206.26992488386333 240.65012625333696 191.8308364254142 H 0.0 **** 0.06
31790 H 207.58010041129964 239.44669949377584 191.88973440843566 H 0.0 **** 0.06
31791 C 131.94366845293695 181.46834444409103 155.40062707678854 C 0.0 **** -0.24
31792 H 131.0768133471498 181.02875087027624 155.89396700433863 H 0.0 **** 0.06
31793 H 132.52804403108172 182.03332398443473 156.1280230406615 H 0.0 **** 0.06
31794 H 131.6103919233996 182.135600748023 154.60581052679512 H 0.0 **** 0.06
31795 H 132.56070936173347 180.67620925110788 154.97501112987027 H 0.0 **** 0.06
31796 C 61.728337386625896 50.041197633125634 173.17272882065 C 0.0 **** -0.24
31797 H 61.104285827320496 49.42548091696425 172.52486606706222 H 0.0 **** 0.06
31798 H 62.77790842509796 49.81240225314616 172.99165738440664 H 0.0 **** 0.06
31799 H 61.48505157870176 49.83350004679404 174.21521445944097 H 0.0 **** 0.06
31800 H 61.54371693442263 51.09487402464423 172.96025074434544 H 0.0 **** 0.06
31801 C 101.77599877669391 120.6917722359182 55.443018168241935 C 0.0 **** -0.24
31802 H 102.53869350078458 121.45555391984166 55.5912472336467 H 0.0 **** 0.06
31803 H 102.1943567719841 119.7118800626954 55.67101263492026 H 0.0 **** 0.06
31804 H 101.43815012443986 120.71193838311626 54.406446804201664 H 0.0 **** 0.06
31805 H 100.9311363381658 120.89018612905099 56.10375485703102 H 0.0 **** 0.06
31806 C 160.21735748381772 134.56841008179913 133.51390366677524 C 0.0 **** -0.24
31807 H 159.9921822313288 133.52698919190027 133.28156939060435 H 0.0 **** 0.06
31808 H 160.63916490874482 134.63319224411066 134.51766327537663 H 0.0 **** 0.06
31809 H 159.30227791545127 135.15808668524005 133.464705595757 H 0.0 **** 0.06
31810 H 160.93683064403 134.95316664172 132.79138769702163 H 0.0 **** 0.06
31811 C 5.198700407414449 172.58282033947583 22.525781666264592 C 0.0 **** -0.24
31812 H 5.33409565236181 172.31751542259943 21.477082471290743 H 0.0 **** 0.06
31813 H 4.295236361404605 172.1064567420082 22.90685254205333 H 0.0 **** 0.06
31814 H 5.106615582550447 173.66408624867233 22.618781503871816 H 0.0 **** 0.06
31815 H 6.059957249730218 172.2410381073846 23.100312894238115 H 0.0 **** 0.06
31816 C 11.746623495424927 83.78558856995863 139.96821002788568 C 0.0 **** -0.24
31817 H 11.863326218220408 84.77543657438926 140.4084565079715 H 0.0 **** 0.06
31818 H 12.637967007262972 83.53599167723578 139.39234831959047 H 0.0 **** 0.06
31819 H 10.876666555576577 83.78058636557327 139.31235451098823 H 0.0 **** 0.06
31820 H 11.608414070870396 83.04965729798053 140.76040185346844 H 0.0 **** 0.06
31821 C 157.34281459511877 149.61098886773507 60.753632440333405 C 0.0 **** -0.24
31822 H 157.40244701744066 148.7201359853702 61.37894491110373 H 0.0 **** 0.06
31823 H 156.52605931168105 150.24362127802655 61.10076873445183 H 0.0 **** 0.06
31824 H 157.16058021949996 149.3161989112467 59.71984808663976 H 0.0 **** 0.06
31825 H 158.28183771427123 150.16157500328265 60.8150739878476 H 0.0 **** 0.06
31826 C 24.712663044185177 134.5049761205927 61.90346085217402 C 0.0 **** -0.24
31827 H 25.736828934010333 134.87871092424558 61.9126315287929 H 0.0 **** 0.06
31828 H 24.722491574687552 133.41771768099412 61.9851802646933 H 0.0 **** 0.06
31829 H 24.228456460732644 134.7955937747605 60.971695365083264 H 0.0 **** 0.06
31830 H 24.164989639973186 134.92836329819696 62.74615220799768 H 0.0 **** 0.06
31831 C 208.97727486272873 38.67215009444709 44.096194432704095 C 0.0 **** -0.24
31832 H 208.59759185506087 37.9047970645436 44.77083708665671 H 0.0 **** 0.06
31833 H 210.0674083041391 38.64663695170482 44.09426111879699 H 0.0 **** 0.06
31834 H 208.63755324813852 39.652243895706235 44.43327891640078 H 0.0 **** 0.06
31835 H 208.60712076380017 38.48563276579017 43.08867332299164 H 0.0 **** 0.06
31836 C 211.81275191798304 65.29667184282721 121.62633419979593 C 0.0 **** -0.24
31837 H 212.6166583340953 64.58232286368585 121.80032146027969 H 0.0 **** 0.06
31838 H 210.99522353211523 64.8024367261412 121.10033080774025 H 0.0 **** 0.06
31839 H 212.1867006533426 66.12344199017173 121.02186911206721 H 0.0 **** 0.06
31840 H 211.4528562752772 65.67880456844404 122.581971307775 H 0.0 **** 0.06
31841 C 125.76893471359696 30.430511669894315 126.8086281994182 C 0.0 **** -0.24
31842 H 126.52831364070141 29.672861671057248 126.61478626648571 H 0.0 **** 0.06
31843 H 126.11019255100047 31.08862551138853 127.60850621605195 H 0.0 **** 0.06
31844 H 124.83983090169545 29.946141097778053 127.10832274454083 H 0.0 **** 0.06
31845 H 125.59942369149456 31.014813791652003 125.90422253111913 H 0.0 **** 0.06
31846 C 10.22027685687253 189.20713006938615 12.819446283487338 C 0.0 **** -0.24
31847 H 10.301176000322826 189.03772273923406 11.745829474692144 H 0.0 **** 0.06
31848 H 10.216339508420702 190.27860000862063 13.018840949718793 H 0.0 **** 0.06
31849 H 11.070397224974812 188.7468055984632 13.324736623760543 H 0.0 **** 0.06
31850 H 9.295469097497971 188.7644843055036 13.188320105937564 H 0.0 **** 0.06
31851 C 56.77309382199698 133.39307290456654 59.3201777429646 C 0.0 **** -0.24
31852 H 57.36605270704314 133.8971907864439 60.08276707073969 H 0.0 **** 0.06
31853 H 55.71605262623035 133.60857426462877 59.48084092417545 H 0.0 **** 0.06
31854 H 56.93755558668329 132.31727086779108 59.383009876828766 H 0.0 **** 0.06
31855 H 57.0702902418148 133.74911208148697 58.334414105419654 H 0.0 **** 0.06
31856 C 20.099490529627687 78.2764700126744 171.71894365558123 C 0.0 **** -0.24
31857 H 21.155089350863875 78.26995990211708 171.99309020326217 H 0.0 **** 0.06
31858 H 19.962462258221166 78.87340975329477 170.81791160456766 H 0.0 **** 0.06
31859 H 19.515642574345108 78.70515834662638 172.53281553502444 H 0.0 **** 0.06
31860 H 19.766779316003138 77.25453387265952 171.53206839953378 H 0.0 **** 0.06
31861 C 138.19330175813855 238.09318767434155 114.9579251746174 C 0.0 **** -0.24
31862 H 138.1681755866552 237.1703753506252 115.53710964914308 H 0.0 **** 0.06
31863 H 139.17640583691767 238.20898241869537 114.50195750727801 H 0.0 **** 0.06
31864 H 137.99484782215757 238.94066312973024 115.61430765466503 H 0.0 **** 0.06
31865 H 137.43328428937755 238.05321505496585 114.1767381167873 H 0.0 **** 0.06
31866 C 30.93991568304338 165.28920439652782 104.71941903930892 C 0.0 **** -0.24
31867 H 30.747560021872715 165.808453571513 103.7805334428808 H 0.0 **** 0.06
31868 H 30.741164783718517 165.9621654607513 105.55325778322484 H 0.0 **** 0.06
31869 H 31.981536039447718 164.97011747733737 104.74993356797435 H 0.0 **** 0.06
31870 H 30.290303837154653 164.417495657445 104.79247302096744 H 0.0 **** 0.06
31871 C 206.43680382166082 129.4583253350379 244.7458525104846 C 0.0 **** -0.24
31872 H 205.38598963505666 129.2659746016707 244.96453794373105 H 0.0 **** 0.06
31873 H 206.51319509644492 130.09546455972895 243.86420430392914 H 0.0 **** 0.06
31874 H 206.94725467241653 128.51420626182414 244.5577656534963 H 0.0 **** 0.06
31875 H 206.89899895616577 129.95883060954756 245.59758234511852 H 0.0 **** 0.06
31876 C 106.071209868887 208.1404048358691 183.97839489563827 C 0.0 **** -0.24
31877 H 106.00337559229135 208.74549112278018 184.8823526729184 H 0.0 **** 0.06
31878 H 107.09125936823509 207.7712694412462 183.86487105041778 H 0.0 **** 0.06
31879 H 105.80484010765619 208.74738610430035 183.113988484117 H 0.0 **** 0.06
31880 H 105.38569467622071 207.29636617847717 184.0551362512681 H 0.0 **** 0.06
31881 C 141.02288833997648 97.04739289248386 117.37438891394228 C 0.0 **** -0.24
31882 H 140.49030485747483 97.35659927660242 118.2745121436225 H 0.0 **** 0.06
31883 H 141.03454061941767 95.95889420498563 117.3165753969383 H 0.0 **** 0.06
31884 H 142.04558248070194 97.42202561812809 117.41056320298739 H 0.0 **** 0.06
31885 H 140.51745614774498 97.45290912255805 116.49757909358257 H 0.0 **** 0.06
31886 C 14.271620712692012 78.7545662809685 31.09790144296761 C 0.0 **** -0.24
31887 H 13.626422889484246 79.48881994444005 31.580304693210934 H 0.0 **** 0.06
31888 H 14.078618230207297 78.75096332145523 30.024944019130686 H 0.0 **** 0.06
31889 H 14.065224641096123 77.76664752673503 31.507834061033634 H 0.0 **** 0.06
31890 H 15.314441043912751 79.01313857609782 31.27890333310242 H 0.0 **** 0.06
31891 C 27.896901814056918 128.17308816003958 196.17575043693483 C 0.0 **** -0.24
31892 H 28.224276373564265 128.67519593405763 195.2646087007687 H 0.0 **** 0.06
31893 H 26.826314354626646 128.3267495820554 196.3106178783211 H 0.0 **** 0.06
31894 H 28.43425685420297 128.58536322364802 197.03009252700406 H 0.0 **** 0.06
31895 H 28.10420082787269 127.1061712221979 196.09639723537424 H 0.0 **** 0.06
31896 C 246.29649992064856 30.063203766934492 30.172899125052197 C 0.0 **** -0.24
31897 H 245.2554943372199 29.976506462854132 30.482864468039793 H 0.0 **** 0.06
31898 H 246.4275519314889 29.58433350540915 29.20205916857944 H 0.0 **** 0.06
31899 H 246.93644394466196 29.576035506019565 30.907791831036292 H 0.0 **** 0.06
31900 H 246.56687193607635 31.117028127826956 30.098054152769663 H 0.0 **** 0.06
31901 C 54.04285519164185 135.6834522299795 140.84121310783232 C 0.0 **** -0.24
31902 H 52.96247488456238 135.82320454206317 140.84485170330856 H 0.0 **** 0.06
31903 H 54.47006260463516 136.1313604510497 141.7383762034423 H 0.0 **** 0.06
31904 H 54.468488552316046 136.1619012527285 139.9591930721625 H 0.0 **** 0.06
31905 H 54.271663809752454 134.61748074221458 140.82182286331673 H 0.0 **** 0.06
31906 C 47.22120020517548 86.97107537304618 181.02265365485292 C 0.0 **** -0.24
31907 H 47.58390906064733 86.71269897246447 182.01697225568554 H 0.0 **** 0.06
31908 H 47.748129670300116 86.37409368325365 180.27771555112847 H 0.0 **** 0.06
31909 H 47.40252410383938 88.0297802552862 180.83374309931915 H 0.0 **** 0.06
31910 H 46.152473098927146 86.76869923588885 180.96193439884937 H 0.0 **** 0.06
31911 C 196.12409403977566 120.89323236400739 164.21545269654186 C 0.0 **** -0.24
31912 H 196.90628448578835 120.99738869001996 163.46333559303574 H 0.0 **** 0.06
31913 H 195.14788588383794 120.97467474086878 163.7369818521447 H 0.0 **** 0.06
31914 H 196.2309511797261 121.67931939645959 164.96195137945227 H 0.0 **** 0.06
31915 H 196.21236790272582 119.91918871572759 164.69805841413375 H 0.0 **** 0.06
31916 C 39.8812471290498 159.83194054043292 213.65321862485808 C 0.0 **** -0.24
31917 H 39.82592039706435 158.8121896423974 214.03654439382984 H 0.0 **** 0.06
31918 H 40.925430162032825 160.13972693437302 213.59194134330127 H 0.0 **** 0.06
31919 H 39.34346306557583 160.50070732025966 214.32405753889185 H 0.0 **** 0.06
31920 H 39.431309761383886 159.87220728618595 212.66139025242637 H 0.0 **** 0.06
31921 C 214.14385249009803 182.4467116324961 13.877743667083323 C 0.0 **** -0.24
31922 H 214.77774126840362 183.08543321047785 13.26146990816099 H 0.0 **** 0.06
31923 H 213.33394063585536 182.04470072150076 13.268643848147107 H 0.0 **** 0.06
31924 H 213.7270444865654 183.03171019351328 14.69798164906453 H 0.0 **** 0.06
31925 H 214.73799773454414 181.62687292193414 14.2809365271184 H 0.0 **** 0.06
31926 C 197.5654255851161 94.14289564528227 121.0650735969061 C 0.0 **** -0.24
31927 H 198.5710961163079 94.52329372872825 120.88364411053973 H 0.0 **** 0.06
31928 H 197.01308916460508 94.85572439014689 121.67754337594715 H 0.0 **** 0.06
31929 H 197.6281696640954 93.18789871190981 121.58719773100006 H 0.0 **** 0.06
31930 H 197.05160381871184 94.00441494074624 120.11387022502561 H 0.0 **** 0.06
31931 C 131.71610441619393 123.01706040380134 126.39238515292556 C 0.0 **** -0.24
31932 H 131.2296274913065 122.04268043657783 126.33486591646502 H 0.0 **** 0.06
31933 H 132.63735174368804 122.99684094412893 125.80902752947688 H 0.0 **** 0.06
31934 H 131.94809507569815 123.2456080199888 127.43194221088399 H 0.0 **** 0.06
31935 H 131.0484167182408 123.78011440423299 125.9916666673877 H 0.0 **** 0.06
31936 C 242.13998350870452 84.40537485930858 115.00663962093896 C 0.0 **** -0.24
31937 H 242.61520832313636 84.97907594253789 115.80236005695477 H 0.0 **** 0.06
31938 H 241.06967402447728 84.3294117002074 115.20398144786844 H 0.0 **** 0.06
31939 H 242.57410370466147 83.40616245566332 114.97021438258753 H 0.0 **** 0.06
31940 H 242.2987301005898 84.90618053082869 114.05237615961931 H 0.0 **** 0.06
31941 C 145.2446694461798 144.39217226867794 211.45306764011264 C 0.0 **** -0.24
31942 H 145.2988472649582 145.23131687298311 212.14709189945572 H 0.0 **** 0.06
31943 H 144.25771971007524 143.9333116142495 211.5161682911596 H 0.0 **** 0.06
31944 H 146.00589557036704 143.65646681060178 211.7133940500515 H 0.0 **** 0.06
31945 H 145.41634969063406 144.74970559326633 210.43870214069688 H 0.0 **** 0.06
31946 C 2.460994549967239 105.37204988468176 202.8051107156332 C 0.0 **** -0.24
31947 H 3.4825498065494287 105.61804960659578 203.09440565251373 H 0.0 **** 0.06
31948 H 2.2419134566328864 104.34205790864158 203.08675867655705 H 0.0 **** 0.06
31949 H 2.352140771377634 105.48516497559987 201.72678219720223 H 0.0 **** 0.06
31950 H 1.768198088982217 106.04336914681122 203.31285088958657 H 0.0 **** 0.06
31951 C 124.55340615810468 223.5827772928869 20.425913201252314 C 0.0 **** -0.24
31952 H 124.13333635774592 223.74812034870064 21.418081839478617 H 0.0 **** 0.06
31953 H 125.4422990594957 222.95699992548523 20.506533710895695 H 0.0 **** 0.06
31954 H 124.82236611650328 224.54164527570572 19.981577391241245 H 0.0 **** 0.06
31955 H 123.81410241931147 223.08563748077177 19.79757606070669 H 0.0 **** 0.06
31956 C 4.20100030217381 44.790971509360446 34.54582018393728 C 0.0 **** -0.24
31957 H 4.4536175966159135 45.19113039953149 35.52825335932535 H 0.0 **** 0.06
31958 H 5.061523191575645 44.261692193259336 34.136169924819086 H 0.0 **** 0.06
31959 H 3.925479570546287 45.60924324626015 33.880302894213045 H 0.0 **** 0.06
31960 H 3.361605922978441 44.1014986049731 34.64021174486378 H 0.0 **** 0.06
31961 C 243.49233300534576 187.82984463220598 199.11410940006604 C 0.0 **** -0.24
31962 H 244.3082579512713 187.33696621110136 199.64262327176567 H 0.0 **** 0.06
31963 H 242.6881210406861 187.11480652436222 198.94047705837448 H 0.0 **** 0.06
31964 H 243.85540112775067 188.20940440000786 198.15876574738326 H 0.0 **** 0.06
31965 H 243.11845584383457 188.65851182946207 199.71486567870534 H 0.0 **** 0.06
31966 C 31.71603704616095 4.223407493996518 25.795145961100246 C 0.0 **** -0.24
31967 H 30.94306047623317 4.306779964937007 26.55986017796775 H 0.0 **** 0.06
31968 H 31.269015482215224 4.355712884841068 24.810041108466066 H 0.0 **** 0.06
31969 H 32.180323940245415 3.238735278996458 25.855178321568047 H 0.0 **** 0.06
31970 H 32.47139433948175 4.991447284610814 25.9583262250201 H 0.0 **** 0.06
31971 C 171.66904554219946 65.50980129490435 66.29062804427602 C 0.0 **** -0.24
31972 H 170.75391706992744 65.09623993926283 66.71566035312657 H 0.0 **** 0.06
31973 H 171.7185771176561 66.57746934566734 66.50419097235346 H 0.0 **** 0.06
31974 H 171.67137970649247 65.35319466681403 65.21258237212501 H 0.0 **** 0.06
31975 H 172.53187705335344 65.01102369300412 66.7327584124138 H 0.0 **** 0.06
31976 C 86.69407047997313 102.0224347530033 229.55617088463282 C 0.0 **** -0.24
31977 H 86.74855621441182 102.1881206964429 228.47993204131635 H 0.0 **** 0.06
31978 H 87.11468865263822 101.04577917633097 229.79527714745944 H 0.0 **** 0.06
31979 H 85.65274387661418 102.05804836258537 229.8760757825292 H 0.0 **** 0.06
31980 H 87.2598241721046 102.79899293800653 230.07157239858617 H 0.0 **** 0.06
31981 C 163.71647332818404 173.05355296429258 18.22369001999283 C 0.0 **** -0.24
31982 H 163.37279192989095 172.6267543378889 17.281859573263333 H 0.0 **** 0.06
31983 H 164.44272088374586 172.38253796608032 18.68286965102277 H 0.0 **** 0.06
31984 H 162.8672576752205 173.1846524050521 18.89460527853032 H 0.0 **** 0.06
31985 H 164.18312282387876 174.02026714814897 18.035425577154896 H 0.0 **** 0.06
31986 C 55.27610679397441 216.97409450045882 109.36278034383523 C 0.0 **** -0.24
31987 H 55.144787337559166 216.88698048535161 108.28445807613375 H 0.0 **** 0.06
31988 H 54.96717619941285 217.9693621813846 109.68613885075575 H 0.0 **** 0.06
31989 H 56.324856635204185 216.8193395565262 109.61414111293007 H 0.0 **** 0.06
31990 H 54.66639322527732 216.2232932609632 109.86471602204361 H 0.0 **** 0.06
31991 C 52.166967971803615 164.3167237100177 172.2877773304432 C 0.0 **** -0.24
31992 H 51.585337480089706 164.88307155576 173.01569124401777 H 0.0 **** 0.06
31993 H 52.86599242278622 164.98447398029828 171.78261203249758 H 0.0 **** 0.06
31994 H 51.49515962694879 163.8717730005625 171.55367789301357 H 0.0 **** 0.06
31995 H 52.72100378470654 163.52924232480325 172.79941290614948 H 0.0 **** 0.06
31996 C 191.908349465281 151.95771004986423 183.15937090060848 C 0.0 **** -0.24
31997 H 192.46058140156288 151.09056049332318 183.51994418399846 H 0.0 **** 0.06
31998 H 191.950838816758 152.75132277598706 183.9057575772102 H 0.0 **** 0.06
31999 H 190.86880447928974 151.67882814693039 182.98506174340906 H 0.0 **** 0.06
32000 H 192.35054387880285 152.30976188676806 182.22811735818738 H 0.0 **** 0.06
32001 C 211.70178137308403 146.35742183013912 142.66841153269277 C 0.0 **** -0.24
32002 H 211.28007099600427 147.3566245801725 142.77241528798842 H 0.0 **** 0.06
32003 H 211.25024851759758 145.8599333194042 141.81019196326125 H 0.0 **** 0.06
32004 H 211.4977335228238 145.78151151616208 143.5716791368968 H 0.0 **** 0.06
32005 H 212.77935326059963 146.43088800173516 142.52090519383043 H 0.0 **** 0.06
32006 C 230.32571752021795 53.88688141867323 0.9537444297532005 C 0.0 **** -0.24
32007 H 230.01937774848443 54.80852414703415 1.4469585609884774 H 0.0 **** 0.06
32008 H 231.0134247888 53.34093735391046 1.5998484177403185 H 0.0 **** 0.06
32009 H 230.8219620522121 54.12527729011043 0.013251826231780228 H 0.0 **** 0.06
32010 H 229.4469782570129 53.27206937664502 0.7564070556306035 H 0.0 **** 0.06
32011 C 221.03471748067062 194.2414181856966 22.5484544283523 C 0.0 **** -0.24
32012 H 221.3240569336595 194.3865886249996 23.588329312344428 H 0.0 **** 0.06
32013 H 221.49563125691682 195.01356071088733 21.931871921550595 H 0.0 **** 0.06
32014 H 219.94939842960153 194.30621558668807 22.461027662428705 H 0.0 **** 0.06
32015 H 221.36883841995507 193.260749109747 22.21241587011494 H 0.0 **** 0.06
32016 C 105.7216788603047 71.61319463619361 210.3882590802152 C 0.0 **** -0.24
32017 H 106.08985878244184 70.80159467972203 209.75971979232114 H 0.0 **** 0.06
32018 H 105.35062715532612 71.2053801887605 211.32852371191433 H 0.0 **** 0.06
32019 H 104.91440386465061 72.13320375429274 209.8733589355372 H 0.0 **** 0.06
32020 H 106.53365055431252 72.31274634788156 210.59015002302687 H 0.0 **** 0.06
32021 C 237.87402042653437 23.68014807746559 216.40483744017266 C 0.0 **** -0.24
32022 H 238.2941166903781 23.957796548399273 215.43828479197504 H 0.0 **** 0.06
32023 H 237.42203798014768 24.556270007908978 216.87008124982395 H 0.0 **** 0.06
32024 H 238.66589493886192 23.295073398385313 217.0475152910728 H 0.0 **** 0.06
32025 H 237.11461278516293 22.910841672240196 216.26400683014512 H 0.0 **** 0.06
32026 C 172.33403688483594 208.44112117286784 243.4383148979041 C 0.0 **** -0.24
32027 H 172.39048699709076 209.16210754085722 244.25394938262139 H 0.0 **** 0.06
32028 H 171.5540073829717 207.71008984382877 243.65468207766446 H 0.0 **** 0.06
32029 H 173.29223539947486 207.93202484363096 243.33666304690405 H 0.0 **** 0.06
32030 H 172.09790963683588 208.96126376606952 242.5103573731247 H 0.0 **** 0.06
32031 C 169.8431059145317 30.427767020989606 135.66498343652265 C 0.0 **** -0.24
32032 H 170.54790992011738 29.608906328246164 135.8055894051353 H 0.0 **** 0.06
32033 H 170.37796413678095 31.377224634730467 135.69561829486983 H 0.0 **** 0.06
32034 H 169.0967202860382 30.405016980458512 136.45956288924666 H 0.0 **** 0.06
32035 H 169.34854304819015 30.320526460246185 134.70015205663677 H 0.0 **** 0.06
32036 C 140.45764512275508 29.179003942868377 8.912441463607863 C 0.0 **** -0.24
32037 H 140.19245616424695 28.153446652595136 8.661707343250924 H 0.0 **** 0.06
32038 H 141.1512138216482 29.180414263080564 9.753969271072336 H 0.0 **** 0.06
32039 H 139.55731667424638 29.731012458701485 9.183129211617967 H 0.0 **** 0.06
32040 H 140.92877871265136 29.65389858996204 8.05181972076059 H 0.0 **** 0.06
32041 C 104.38082309006623 99.57844397756813 172.32655772826578 C 0.0 **** -0.24
32042 H 105.01618459565955 98.9751494595929 172.9757025964958 H 0.0 **** 0.06
32043 H 104.20055386736234 99.04070568113778 171.3948361404858 H 0.0 **** 0.06
32044 H 104.87747992686067 100.52409540831334 172.10978151823068 H 0.0 **** 0.06
32045 H 103.43150585657148 99.77159413081586 172.82485820487813 H 0.0 **** 0.06
32046 C 44.27156749038548 26.34745262151138 154.66053807700118 C 0.0 **** -0.24
32047 H 44.02759276047827 25.362985545222003 154.26124685969828 H 0.0 **** 0.06
32048 H 44.33237451737965 26.293679262823517 155.74732025220806 H 0.0 **** 0.06
32049 H 43.496017799647404 27.05766408971978 154.37362359914994 H 0.0 **** 0.06
32050 H 45.23025120119149 26.675436911365395 154.257512734383 H 0.0 **** 0.06
32051 C 230.06316947676504 56.34648566845192 116.08763915042809 C 0.0 **** -0.24
32052 H 229.43872127092473 55.92667077770855 116.87488780475152 H 0.0 **** 0.06
32053 H 229.67820664810884 57.3250234238883 115.80026299817163 H 0.0 **** 0.06
32054 H 230.05383840044055 55.68298944823616 115.22250432142638 H 0.0 **** 0.06
32055 H 231.08561976036037 56.451737290702454 116.45275707536345 H 0.0 **** 0.06
32056 C 106.65375068833168 12.311962011111632 242.02746620809276 C 0.0 **** -0.24
32057 H 105.92854038196984 12.856197248887867 241.42371827040813 H 0.0 **** 0.06
32058 H 106.20734115703192 11.38224306251044 242.3821686035889 H 0.0 **** 0.06
32059 H 106.9468487875904 12.922699048401356 242.88155891222635 H 0.0 **** 0.06
32060 H 107.53367282342805 12.086156011210306 241.42481352293262 H 0.0 **** 0.06
32061 C 25.764147683383555 45.09178538043511 42.49584189245175 C 0.0 **** -0.24
32062 H 26.561814834092274 44.501989643075916 42.045876716798006 H 0.0 **** 0.06
32063 H 25.425440175978395 44.606187586958384 43.41077826833478 H 0.0 **** 0.06
32064 H 24.931892025239193 45.17115447509369 41.7964395508408 H 0.0 **** 0.06
32065 H 26.137513227766107 46.08921926604995 42.73018009621566 H 0.0 **** 0.06
32066 C 180.1301123700053 155.76726802878065 206.28156518046274 C 0.0 **** -0.24
32067 H 180.00730440965498 155.2803212819487 207.24880591382734 H 0.0 **** 0.06
32068 H 181.05088048747365 155.41729614778345 205.81366525917153 H 0.0 **** 0.06
32069 H 180.18150325094396 156.84703903704235 206.4229233081943 H 0.0 **** 0.06
32070 H 179.28185317424297 155.52475580097118 205.64169822387345 H 0.0 **** 0.06
32071 C 121.69861953537088 141.6165320787569 119.20962412209335 C 0.0 **** -0.24
32072 H 122.17247645269993 140.74633767487157 119.66308402506488 H 0.0 **** 0.06
32073 H 120.61567184710123 141.49815771960252 119.24118963370677 H 0.0 **** 0.06
32074 H 122.02408425683211 141.70786980910685 118.17309592248375 H 0.0 **** 0.06
32075 H 121.98301896241838 142.51369692474537 119.75994473710793 H 0.0 **** 0.06
32076 C 219.58614275536388 63.41385178398755 123.11523847331114 C 0.0 **** -0.24
32077 H 219.57612891645243 62.5888493777538 122.40271035110254 H 0.0 **** 0.06
32078 H 219.94678606754638 64.315480412661 122.62090378992121 H 0.0 **** 0.06
32079 H 220.24431251519485 63.166729792001576 123.94765654637177 H 0.0 **** 0.06
32080 H 218.5757951086641 63.583549666023345 123.48870043944677 H 0.0 **** 0.06
32081 C 229.59331922562072 104.02785766612686 164.74244970136343 C 0.0 **** -0.24
32082 H 228.52993234564272 103.80882577716861 164.64824280313056 H 0.0 **** 0.06
32083 H 229.8262816173686 104.25583974810661 165.7828656130645 H 0.0 **** 0.06
32084 H 229.8443253365626 104.88466702688231 164.11698249765553 H 0.0 **** 0.06
32085 H 230.17174940258874 103.16198784458132 164.42160153896359 H 0.0 **** 0.06
32086 C 78.17873849845722 88.68204733484254 126.424055757339 C 0.0 **** -0.24
32087 H 79.06819010235085 88.65600700082567 127.05384645087224 H 0.0 **** 0.06
32088 H 78.36332547767103 89.32275484205084 125.5621490917865 H 0.0 **** 0.06
32089 H 77.34002172118997 89.07612633317618 126.99850548171031 H 0.0 **** 0.06
32090 H 77.94466965805972 87.67327649966748 126.08425766016936 H 0.0 **** 0.06
32091 C 34.960384864541055 158.32841185326598 80.66188220250112 C 0.0 **** -0.24
32092 H 35.74474855875266 158.85739795610934 80.1205644889433 H 0.0 **** 0.06
32093 H 35.412939941903545 157.6346933051352 81.37020772358008 H 0.0 **** 0.06
32094 H 34.341446627513534 157.77468669242603 79.95584999729951 H 0.0 **** 0.06
32095 H 34.343161546794164 159.04745011420152 81.2006074807243 H 0.0 **** 0.06
32096 C 8.312046824326899 75.64743473729939 230.87621677656088 C 0.0 **** -0.24
32097 H 8.272071387202814 76.03543997117475 231.8937458750199 H 0.0 **** 0.06
32098 H 8.12867555524538 76.45850760438961 230.17170748064686 H 0.0 **** 0.06
32099 H 7.550784885569328 74.8770385684625 230.7517074320065 H 0.0 **** 0.06
32100 H 9.296114229374894 75.2184436294634 230.68932233185882 H 0.0 **** 0.06
32101 C 66.47762632965973 72.61016874704339 116.2775961091252 C 0.0 **** -0.24
32102 H 66.30720133328191 71.62711330103454 116.7180934339228 H 0.0 **** 0.06
32103 H 66.90699725740092 72.49202797644634 115.2820957596461 H 0.0 **** 0.06
32104 H 67.16633525720061 73.17474608797758 116.90580467679601 H 0.0 **** 0.06
32105 H 65.53075032446756 73.14495983398191 116.20541654075978 H 0.0 **** 0.06
32106 C 49.031905493270315 83.18744704502194 87.62060676087984 C 0.0 **** -0.24
32107 H 49.354545351072375 83.85695646240814 86.82349056630773 H 0.0 **** 0.06
32108 H 48.13047920842813 82.66012392551158 87.30961071199098 H 0.0 **** 0.06
32109 H 48.822789650501264 83.76783348861247 88.5192811793089 H 0.0 **** 0.06
32110 H 49.82119726422167 82.46513722342686 87.83003119965394 H 0.0 **** 0.06
32111 C 179.63735919944685 153.53900655956014 191.49794077972984 C 0.0 **** -0.24
32112 H 180.40449442349177 154.29527958525497 191.3313627842564 H 0.0 **** 0.06
32113 H 178.7685792724832 154.0002724597219 191.96640077393033 H 0.0 **** 0.06
32114 H 180.03156535664908 152.76020077114927 192.14967431799164 H 0.0 **** 0.06
32115 H 179.34702843539333 153.10118011523713 190.5425358248699 H 0.0 **** 0.06
32116 C 68.11772200150457 189.52041571160387 13.026131393533063 C 0.0 **** -0.24
32117 H 68.86591756634516 189.61103460255015 13.814253968115366 H 0.0 **** 0.06
32118 H 67.92780240769986 190.50251893426864 12.591749777354408 H 0.0 **** 0.06
32119 H 67.19382921880009 189.12407066562204 13.44673725954513 H 0.0 **** 0.06
32120 H 68.48467431191116 188.84493987367722 12.25362964000189 H 0.0 **** 0.06
32121 C 155.79408837388684 60.08536965567643 112.28708977004382 C 0.0 **** -0.24
32122 H 155.344006934846 59.2743676724842 112.86103930288587 H 0.0 **** 0.06
32123 H 156.25593815129153 59.67911872636043 111.38706613848191 H 0.0 **** 0.06
32124 H 156.55249501824397 60.58159418778618 112.89260289477429 H 0.0 **** 0.06
32125 H 155.02397525488908 60.804254450957956 112.0088344982947 H 0.0 **** 0.06
32126 C 72.53106604471299 145.10072802913655 9.855992347278743 C 0.0 **** -0.24
32127 H 71.73692603363031 144.6177110145478 9.286978488094249 H 0.0 **** 0.06
32128 H 73.36323358950887 144.40775783882904 9.977684812576058 H 0.0 **** 0.06
32129 H 72.1513451085934 145.38897451397273 10.836626607154273 H 0.0 **** 0.06
32130 H 72.87195471890152 145.98826096078517 9.323235580390303 H 0.0 **** 0.06
32131 C 112.15181151359596 160.34069607492606 196.26033510403073 C 0.0 **** -0.24
32132 H 112.08838143205057 160.81587443742964 197.2389027873814 H 0.0 **** 0.06
32133 H 111.4097930261594 160.78011292477274 195.5938533239151 H 0.0 **** 0.06
32134 H 111.96165579052939 159.2715029869675 196.36301678679146 H 0.0 **** 0.06
32135 H 113.14903942972484 160.49388103982704 195.84673695662002 H 0.0 **** 0.06
32136 C 154.4534776253617 246.43360549200165 33.8529542691019 C 0.0 **** -0.24
32137 H 153.6575986201209 245.71066600959725 34.02924004134056 H 0.0 **** 0.06
32138 H 154.17169915601693 247.09038025364276 33.02894553631549 H 0.0 **** 0.06
32139 H 155.3728726269836 245.9059374447583 33.59944128942519 H 0.0 **** 0.06
32140 H 154.6115386286169 247.02690621487136 34.753367805735394 H 0.0 **** 0.06
32141 C 85.91438212136191 114.43827516299027 169.3307690190467 C 0.0 **** -0.24
32142 H 85.7363060777945 115.50977484847988 169.25276328603363 H 0.0 **** 0.06
32143 H 85.2569094986134 114.01481546694797 170.09108554555146 H 0.0 **** 0.06
32144 H 86.9535661922541 114.26183853726556 169.60980335503902 H 0.0 **** 0.06
32145 H 85.71133982298267 113.96467793864207 168.3702441294861 H 0.0 **** 0.06
32146 C 176.12600311680347 148.28736060206202 204.3504892327293 C 0.0 **** -0.24
32147 H 176.49814938590936 148.84335921952223 205.21040390923793 H 0.0 **** 0.06
32148 H 176.84252081195305 147.50906493226626 204.0836337776836 H 0.0 **** 0.06
32149 H 175.99599345766978 148.96596524765968 203.50766434627383 H 0.0 **** 0.06
32150 H 175.16823777829737 147.82957518897814 204.60009422369197 H 0.0 **** 0.06
32151 C 247.28728641991881 29.085042471879248 181.04484831891705 C 0.0 **** -0.24
32152 H 246.26826815047517 29.271473272157436 180.7054386921452 H 0.0 **** 0.06
32153 H 247.70206683331347 28.23649632429074 180.50127476574636 H 0.0 **** 0.06
32154 H 247.27936462259999 28.864328691563614 182.11277165530953 H 0.0 **** 0.06
32155 H 247.89715779094382 29.969587955460966 180.86158685042665 H 0.0 **** 0.06
32156 C 235.57025924822827 42.474930476272874 59.45403711392336 C 0.0 **** -0.24
32157 H 235.89039689811173 43.09961627466288 60.28789567918915 H 0.0 **** 0.06
32158 H 234.5853546856545 42.05965794859223 59.66888893438414 H 0.0 **** 0.06
32159 H 236.28432475290577 41.66362958075423 59.312351258223316 H 0.0 **** 0.06
32160 H 235.52098743706176 43.07823057976613 58.547077439354354 H 0.0 **** 0.06
32161 C 149.48649716088636 83.82763264326175 78.74965269594179 C 0.0 **** -0.24
32162 H 150.40402968661144 83.66347573180622 79.31558038682044 H 0.0 **** 0.06
32163 H 149.44202204404684 84.86668668400591 78.42340856510754 H 0.0 **** 0.06
32164 H 148.62617725523577 83.60799814805503 79.38148804844352 H 0.0 **** 0.06
32165 H 149.47449415273474 83.17233028442936 77.87934165689558 H 0.0 **** 0.06
32166 C 165.02265854707827 33.36514720857724 213.2076393103261 C 0.0 **** -0.24
32167 H 165.3021723451456 34.41672949610282 213.13279071344667 H 0.0 **** 0.06
32168 H 164.21449096512006 33.15424385260738 212.50758109916603 H 0.0 **** 0.06
32169 H 164.69059836050468 33.14943774997097 214.22267774370084 H 0.0 **** 0.06
32170 H 165.88411015744563 32.742948632814716 212.96662558307375 H 0.0 **** 0.06
32171 C 105.69070286226278 8.93529244932894 133.77514402933693 C 0.0 **** -0.24
32172 H 105.7189181722475 8.100706116703194 133.07542186488496 H 0.0 **** 0.06
32173 H 106.58834654107386 9.542626266505962 133.65302505713163 H 0.0 **** 0.06
32174 H 105.6463381808542 8.554140137157063 134.79465383548683 H 0.0 **** 0.06
32175 H 104.80956405282353 9.545543061536222 133.5762642656464 H 0.0 **** 0.06
32176 C 44.45702690741065 177.7656187856303 177.38584192511865 C 0.0 **** -0.24
32177 H 44.09950040575224 178.79463195174145 177.3840363934633 H 0.0 **** 0.06
32178 H 43.60736220124187 177.08592371412223 177.45525425872643 H 0.0 **** 0.06
32179 H 45.11679339510046 177.61103857029582 178.24031586830517 H 0.0 **** 0.06
32180 H 45.00445162754801 177.57088090636165 176.46376117997977 H 0.0 **** 0.06
32181 C 1.926247848993654 184.0765614247846 165.5492650637364 C 0.0 **** -0.24
32182 H 2.2041569210317817 183.02570849638244 165.62367762634585 H 0.0 **** 0.06
32183 H 1.2348816634229962 184.2120857073661 164.71753942657054 H 0.0 **** 0.06
32184 H 2.8199405585536397 184.67762286282527 165.38048988492406 H 0.0 **** 0.06
32185 H 1.4470188190194904 184.39217729154274 166.47576316214088 H 0.0 **** 0.06
32186 C 206.443680380001 209.92729230638727 99.00772330096507 C 0.0 **** -0.24
32187 H 207.03884870558178 209.01712554301875 99.07374364086854 H 0.0 **** 0.06
32188 H 205.78663921725504 209.86997555079176 98.13960333570506 H 0.0 **** 0.06
32189 H 207.10580499207848 210.78798876118285 98.90608573994254 H 0.0 **** 0.06
32190 H 205.8442447906259 210.03616022439812 99.91152323400402 H 0.0 **** 0.06
32191 C 191.58154423075928 182.81091149193122 5.584222570782657 C 0.0 **** -0.24
32192 H 190.969634806744 181.92247975411738 5.431158976012739 H 0.0 **** 0.06
32193 H 192.56530151264104 182.65639605475428 5.139962322717366 H 0.0 **** 0.06
32194 H 191.69045710981715 182.99635410158183 6.652960890373947 H 0.0 **** 0.06
32195 H 191.10065807748498 183.66900212839175 5.114089035421017 H 0.0 **** 0.06
32196 C 36.58542149973843 10.523582545196717 70.13750690708468 C 0.0 **** -0.24
32197 H 36.28609380619699 9.558102536661437 70.54514872569442 H 0.0 **** 0.06
32198 H 36.88956609097143 10.399342116698989 69.09693015437398 H 0.0 **** 0.06
32199 H 37.42035238963507 10.918513138767793 70.71602380492874 H 0.0 **** 0.06
32200 H 35.74580811886908 11.216198905666005 70.19080335297923 H 0.0 **** 0.06
32201 C 102.3307453211523 206.32372177353483 187.67245773982341 C 0.0 **** -0.24
32202 H 102.11345436632669 206.42809665370106 188.7355189306432 H 0.0 **** 0.06
32203 H 103.30497664768936 206.76255630670877 187.4558817742613 H 0.0 **** 0.06
32204 H 101.56260848705608 206.8366913686607 187.09277974446132 H 0.0 **** 0.06
32205 H 102.34065227864713 205.26596584154464 187.4065727561126 H 0.0 **** 0.06
32206 C 18.777129921649788 46.516042206380334 55.24199415636272 C 0.0 **** -0.24
32207 H 19.244003798199316 46.76273255530619 54.28852406111034 H 0.0 **** 0.06
32208 H 18.53919633367431 45.45227938109372 55.26601154395652 H 0.0 **** 0.06
32209 H 17.86122226237066 47.096478910170575 55.35915633212022 H 0.0 **** 0.06
32210 H 19.464097292354808 46.75267797895087 56.05428468826375 H 0.0 **** 0.06
32211 C 206.96364321319012 193.51046612150205 56.38720754502154 C 0.0 **** -0.24
32212 H 207.1634940172313 193.9794268264425 57.35048013315517 H 0.0 **** 0.06
32213 H 206.01525276646692 192.97469914829566 56.43460887646049 H 0.0 **** 0.06
32214 H 207.76528018973792 192.810387042304 56.15180786326184 H 0.0 **** 0.06
32215 H 206.9117007561647 194.2765697609245 55.61394707244986 H 0.0 **** 0.06
32216 C 213.9843489479113 32.710376307184845 241.75877395180686 C 0.0 **** -0.24
32217 H 214.17642335492963 32.77797484807678 242.82874657340693 H 0.0 **** 0.06
32218 H 214.38246418889742 31.769566859531608 241.3773471345645 H 0.0 **** 0.06
32219 H 214.46909029100135 33.54350334511304 241.24945210686406 H 0.0 **** 0.06
32220 H 212.91028434156817 32.750677459407314 241.579100353505 H 0.0 **** 0.06
32221 C 123.40817988828786 227.59961855195823 239.6860536738326 C 0.0 **** -0.24
32222 H 123.54512858077092 227.77498973678422 238.61902669583912 H 0.0 **** 0.06
32223 H 124.06434446691992 228.2631224739109 240.25073781164582 H 0.0 **** 0.06
32224 H 123.65310888154534 226.56304540300593 239.91789082649706 H 0.0 **** 0.06
32225 H 122.37155178621015 227.79732207136598 239.95654776483806 H 0.0 **** 0.06
32226 C 191.86815378272306 142.13398125115947 162.11434747147874 C 0.0 **** -0.24
32227 H 191.09240478949363 141.3893028916214 162.29350163014539 H 0.0 **** 0.06
32228 H 191.6457341752889 142.6759134360322 161.1944890008718 H 0.0 **** 0.06
32229 H 192.83316883303047 141.6360366521318 162.01878754110842 H 0.0 **** 0.06
32230 H 191.90034624109424 142.83288866192703 162.94966515815992 H 0.0 **** 0.06
32231 C 25.3619191214797 53.34251908617577 173.4223631606867 C 0.0 **** -0.24
32232 H 25.178736367146627 53.350851485484114 174.49671702061536 H 0.0 **** 0.06
32233 H 25.249107151062702 52.32738280922642 173.04210618851022 H 0.0 **** 0.06
32234 H 26.373627358061157 53.69551012374782 173.2241578781032 H 0.0 **** 0.06
32235 H 24.64429318390549 53.9977862536324 172.92694864885573 H 0.0 **** 0.06
32236 C 211.668554371445 46.97173994978121 13.225927800768801 C 0.0 **** -0.24
32237 H 211.76031237819825 47.74186394854431 12.45892840031641 H 0.0 **** 0.06
32238 H 212.64372019391493 46.51622105552107 13.399797666765238 H 0.0 **** 0.06
32239 H 210.9648021674388 46.20978968059475 12.893486565877225 H 0.0 **** 0.06
32240 H 211.30764616511243 47.42205253691523 14.151231221507231 H 0.0 **** 0.06
32241 C 142.89318996142538 242.02160124785885 195.91777926262472 C 0.0 **** -0.24
32242 H 142.00290371112177 241.40274954469174 195.81173437262754 H 0.0 **** 0.06
32243 H 143.62813442982474 241.4984505302328 196.52953536092474 H 0.0 **** 0.06
32244 H 142.6254042382827 242.96364665451392 196.39763636654055 H 0.0 **** 0.06
32245 H 143.31522481644922 242.22213684519906 194.93378301794758 H 0.0 **** 0.06
32246 C 131.1278686210946 121.10126167141803 178.27726966412575 C 0.0 **** -0.24
32247 H 131.6971551806369 120.34273335838614 177.74138426021486 H 0.0 **** 0.06
32248 H 130.51456021206258 120.6226188844908 179.0417161709576 H 0.0 **** 0.06
32249 H 130.4853341725788 121.63493949828774 177.57752469567572 H 0.0 **** 0.06
32250 H 131.81361139489564 121.8044836618204 178.74896791648422 H 0.0 **** 0.06
32251 C 71.67129364828386 14.069891504816468 113.26147535956122 C 0.0 **** -0.24
32252 H 71.11431030787301 13.629792556271724 114.08907130575531 H 0.0 **** 0.06
32253 H 72.73778455477537 13.910619396490489 113.41650793131487 H 0.0 **** 0.06
32254 H 71.46514418265596 15.138918898092214 113.21382670494873 H 0.0 **** 0.06
32255 H 71.364400199713 13.598613475376311 112.32786355723445 H 0.0 **** 0.06
32256 C 172.76919336221437 174.31416707992753 158.67556868214191 C 0.0 **** -0.24
32257 H 172.08369569121902 174.59298792525036 159.47600447013082 H 0.0 **** 0.06
32258 H 173.79385065449793 174.3557451196262 159.04467201043207 H 0.0 **** 0.06
32259 H 172.65430521772788 175.0058560714449 157.84170201938224 H 0.0 **** 0.06
32260 H 172.54367488453417 173.30155728090915 158.34167741766984 H 0.0 **** 0.06
32261 C 229.2753078077325 171.84079825291397 118.8571370208384 C 0.0 **** -0.24
32262 H 229.68765236830856 172.62009775683512 119.4972438912715 H 0.0 **** 0.06
32263 H 229.55860909755154 170.86287721268897 119.24800579631659 H 0.0 **** 0.06
32264 H 229.6668523238647 171.95614240179663 117.8466202298448 H 0.0 **** 0.06
32265 H 228.18862863530626 171.92398639251184 118.83833066240479 H 0.0 **** 0.06
32266 C 199.5757310199087 106.08693009275052 1.640885259873528 C 0.0 **** -0.24
32267 H 198.87096600111414 105.85444246215118 0.8419457451622634 H 0.0 **** 0.06
32268 H 199.60896468878622 105.25764408859166 2.347999693824363 H 0.0 **** 0.06
32269 H 199.2547608307205 106.99218753379029 2.1555353012496994 H 0.0 **** 0.06
32270 H 200.56737706621686 106.24265157839798 1.2159070158158585 H 0.0 **** 0.06
32271 C 36.11163086245722 195.8154387069946 16.558148644362433 C 0.0 **** -0.24
32272 H 35.71605174599412 195.13713007657563 15.80211218076306 H 0.0 **** 0.06
32273 H 36.70659834160334 196.59117470381094 16.074250980954886 H 0.0 **** 0.06
32274 H 36.737451888552016 195.25735129489448 17.25413574701004 H 0.0 **** 0.06
32275 H 35.28568485564344 196.27559937939245 17.100044310912907 H 0.0 **** 0.06
32276 C 187.83512338338628 223.0549349337765 210.40354921396317 C 0.0 **** -0.24
32277 H 187.84530441445276 224.14215882930833 210.48415394111413 H 0.0 **** 0.06
32278 H 188.44600037227863 222.62572710049605 211.19723460616183 H 0.0 **** 0.06
32279 H 188.2388748856095 222.75933375186548 209.43491138684007 H 0.0 **** 0.06
32280 H 186.81051914581693 222.69335278946406 210.4958318654122 H 0.0 **** 0.06
32281 C 82.21270126684735 128.89211407468397 219.46612874887683 C 0.0 **** -0.24
32282 H 82.2873249282479 129.9061245185485 219.85924921407394 H 0.0 **** 0.06
32283 H 83.21158164071045 128.5132088722257 219.24851574144998 H 0.0 **** 0.06
32284 H 81.61973390185875 128.89961562648799 218.5511697296934 H 0.0 **** 0.06
32285 H 81.73266970135808 128.25004363159871 220.20437315778366 H 0.0 **** 0.06
32286 C 205.95262397156836 76.46035729594854 189.02472698390775 C 0.0 **** -0.24
32287 H 205.26866830244836 75.92616629122475 188.3666713908113 H 0.0 **** 0.06
32288 H 205.5699225161705 77.46513008700737 189.2073955801082 H 0.0 **** 0.06
32289 H 206.93361426644958 76.52591628123099 188.5538123071852 H 0.0 **** 0.06
32290 H 206.03940749007853 75.92699624192815 189.97086659680497 H 0.0 **** 0.06
32291 C 211.1821669634592 242.16002091972578 235.21695587184092 C 0.0 **** -0.24
32292 H 211.8739299477687 242.46443121078187 234.432059121222 H 0.0 **** 0.06
32293 H 211.52240478264036 241.2216097410331 235.65623626891232 H 0.0 **** 0.06
32294 H 210.187968386852 242.02370614520814 234.79277073501044 H 0.0 **** 0.06
32295 H 211.1464593589069 242.93045595928692 235.9880216267283 H 0.0 **** 0.06
32296 C 106.67288579758636 138.47563917422556 181.35935146021865 C 0.0 **** -0.24
32297 H 107.36041963173929 138.22175558925235 182.16684940575084 H 0.0 **** 0.06
32298 H 105.67330225025367 138.6231324014107 181.76751692081388 H 0.0 **** 0.06
32299 H 106.65191776801683 137.66340602507756 180.63216288040013 H 0.0 **** 0.06
32300 H 107.00694759679087 139.39153449199625 180.87273863467368 H 0.0 **** 0.06
32301 C 79.8563120738724 50.15839293853779 233.69598888646527 C 0.0 **** -0.24
32302 H 80.31511754441439 51.02244291998653 233.2162475703579 H 0.0 **** 0.06
32303 H 79.2741148855929 50.487072355051424 234.55745325249018 H 0.0 **** 0.06
32304 H 80.63401487294013 49.469123017173075 234.02397500645958 H 0.0 **** 0.06
32305 H 79.20088807690394 49.65441637420818 232.98505739569856 H 0.0 **** 0.06
32306 C 115.19677827982525 34.327243875001315 94.34749166482581 C 0.0 **** -0.24
32307 H 116.09207962523209 33.925104613949074 93.87386092273144 H 0.0 **** 0.06
32308 H 115.13745853381462 33.96864146606259 95.37488255667262 H 0.0 **** 0.06
32309 H 114.3161735365158 33.99817585752288 93.79521627937487 H 0.0 **** 0.06
32310 H 115.24194668778415 35.41591932395772 94.34347386518772 H 0.0 **** 0.06
32311 C 204.17868978401532 191.91145842016405 176.9590426142735 C 0.0 **** -0.24
32312 H 204.30405578525972 190.9863060705119 177.52083711076295 H 0.0 **** 0.06
32313 H 203.17033047964892 192.29606377281738 177.11252162472368 H 0.0 **** 0.06
32314 H 204.33604649465596 191.71808832281346 175.89868539870025 H 0.0 **** 0.06
32315 H 204.90503032443468 192.64732955268857 177.3054248800048 H 0.0 **** 0.06
32316 C 30.64337101913381 164.6474877399704 118.2988714765601 C 0.0 **** -0.24
32317 H 29.700395947480246 164.43575952383208 118.8024335292856 H 0.0 **** 0.06
32318 H 30.677063443701826 165.7007282203882 118.0194759075508 H 0.0 **** 0.06
32319 H 30.72302612142525 164.0312918173867 117.4035356655385 H 0.0 **** 0.06
32320 H 31.472032227279072 164.42237523782808 118.96988379222725 H 0.0 **** 0.06
32321 C 23.796704776416306 171.39059770276637 90.15357371661997 C 0.0 **** -0.24
32322 H 22.986155265523138 172.11228827715175 90.0510028792302 H 0.0 **** 0.06
32323 H 24.653480704792216 171.72145364085387 89.56610803154689 H 0.0 **** 0.06
32324 H 23.46387582653101 170.41671371775348 89.7942348162594 H 0.0 **** 0.06
32325 H 24.08285726155627 171.3125041517267 91.20226085677493 H 0.0 **** 0.06
32326 C 129.10983742905677 50.56772652621228 111.80663462665015 C 0.0 **** -0.24
32327 H 130.1727298533864 50.38624421073922 111.96974331433333 H 0.0 **** 0.06
32328 H 128.559097942338 50.34370661204591 112.71990493691501 H 0.0 **** 0.06
32329 H 128.7525116768368 49.92846371187764 110.99968857876269 H 0.0 **** 0.06
32330 H 128.95715679649302 51.612551241200975 111.53657813908634 H 0.0 **** 0.06
32331 C 23.71525770967679 135.3432949407235 94.77763794533976 C 0.0 **** -0.24
32332 H 24.06989460426196 134.4333136556805 94.29244281544504 H 0.0 **** 0.06
32333 H 23.09369173319776 135.9069860718748 94.08205645272008 H 0.0 **** 0.06
32334 H 24.568955683963182 135.95115536281784 95.0776513566262 H 0.0 **** 0.06
32335 H 23.129343511188324 135.08027610301176 95.6579874248664 H 0.0 **** 0.06
32336 C 71.7381304739769 143.1581828965717 54.389489258953915 C 0.0 **** -0.24
32337 H 72.10338254979249 144.08697251741827 54.82869119280599 H 0.0 **** 0.06
32338 H 71.06660969910567 143.38884072365093 53.561794631888176 H 0.0 **** 0.06
32339 H 71.20180176747084 142.58618903122272 55.14502620832508 H 0.0 **** 0.06
32340 H 72.5817849273902 142.57423976521582 54.02169699317699 H 0.0 **** 0.06
32341 C 201.61935358031917 163.14922935498493 43.95339362749482 C 0.0 **** -0.24
32342 H 201.926254058395 163.03933566950997 44.99433361627048 H 0.0 **** 0.06
32343 H 200.8504932683768 163.9192947375504 43.88185547220026 H 0.0 **** 0.06
32344 H 201.2191153968003 162.2022195408939 43.59218264818624 H 0.0 **** 0.06
32345 H 202.47922081390465 163.43586353119946 43.350053148299594 H 0.0 **** 0.06
32346 C 183.34561734563067 35.015872561708775 81.94396039662138 C 0.0 **** -0.24
32347 H 184.01466584244136 35.47663159300566 82.66978942600892 H 0.0 **** 0.06
32348 H 183.33987377023152 33.93533266011994 82.08963849542431 H 0.0 **** 0.06
32349 H 183.69137289234132 35.24566512416902 80.93565535436147 H 0.0 **** 0.06
32350 H 182.33713063250974 35.40649442175956 82.07963161807115 H 0.0 **** 0.06
32351 C 100.55047619745162 87.4312965478228 176.11424611042605 C 0.0 **** -0.24
32352 H 100.0485665130993 87.41432937376968 175.14743312883155 H 0.0 **** 0.06
32353 H 101.04447257454714 88.39325687179428 176.24927380757765 H 0.0 **** 0.06
32354 H 101.2916095484953 86.63287181444187 176.15300009999785 H 0.0 **** 0.06
32355 H 99.81631297391456 87.28440652661209 176.90736102425882 H 0.0 **** 0.06
32356 C 201.41895905108683 136.0098338311608 30.478120612007928 C 0.0 **** -0.24
32357 H 202.20903932264332 135.60088222309224 31.109248437607008 H 0.0 **** 0.06
32358 H 201.53778292499067 135.63778698849143 29.460657295882598 H 0.0 **** 0.06
32359 H 201.48237419717853 137.09840889530074 30.477467204192564 H 0.0 **** 0.06
32360 H 200.44772160465493 135.7023875074465 30.867303295698733 H 0.0 **** 0.06
32361 C 98.31371733118974 16.897791246973412 103.94759812747847 C 0.0 **** -0.24
32362 H 97.22954409665508 16.95993567626863 103.85090251357539 H 0.0 **** 0.06
32363 H 98.69624540156278 17.835005044144225 104.35139899351898 H 0.0 **** 0.06
32364 H 98.75546957612616 16.716160311851468 102.968738224828 H 0.0 **** 0.06
32365 H 98.57197772364256 16.079780363284485 104.62047280954025 H 0.0 **** 0.06
32366 C 225.27611055544372 87.45143918460468 35.32887897370594 C 0.0 **** -0.24
32367 H 225.5945832435481 88.16728312427983 36.086440962361536 H 0.0 **** 0.06
32368 H 224.6473784257751 87.95495861094668 34.594565236271336 H 0.0 **** 0.06
32369 H 224.71127680016247 86.64834255592618 35.80258690677792 H 0.0 **** 0.06
32370 H 226.15253525893212 87.03496916631434 34.83149175995945 H 0.0 **** 0.06
32371 C 95.09167575553323 132.53586731037132 242.3878554468605 C 0.0 **** -0.24
32372 H 95.22284383774908 132.86974949875608 243.41706591421837 H 0.0 **** 0.06
32373 H 94.6261459936008 133.33074208537397 241.805253781425 H 0.0 **** 0.06
32374 H 94.4548512606292 131.65197241161397 242.3711542529153 H 0.0 **** 0.06
32375 H 96.06387756619992 132.2922867273813 241.9585190808987 H 0.0 **** 0.06
32376 C 149.8017230595123 140.51714424771168 233.124228995465 C 0.0 **** -0.24
32377 H 149.0119915801446 141.26858599556292 233.126244309831 H 0.0 **** 0.06
32378 H 150.12145944965988 140.32829408423973 232.10003574534096 H 0.0 **** 0.06
32379 H 149.42342478155808 139.59385632711115 233.56346173724364 H 0.0 **** 0.06
32380 H 150.64735864538792 140.877926795127 233.70980647030385 H 0.0 **** 0.06
32381 C 132.0110481032766 168.80370608415876 117.6435043309171 C 0.0 **** -0.24
32382 H 133.00213584304927 168.80317743060303 118.09819806345112 H 0.0 **** 0.06
32383 H 131.28036643043106 168.43997277531884 118.36680990561541 H 0.0 **** 0.06
32384 H 132.01264803537148 168.15152320150546 116.76955495774098 H 0.0 **** 0.06
32385 H 131.751141042262 169.8173157954298 117.34070203944947 H 0.0 **** 0.06
32386 C 30.844243217527563 239.88272648347152 4.800023514536775 C 0.0 **** -0.24
32387 H 30.936991729399594 238.87670626237383 4.390331433248392 H 0.0 **** 0.06
32388 H 30.625869180137983 239.82126351046975 5.86669528364169 H 0.0 **** 0.06
32389 H 30.034351244928544 240.40752503812135 4.292700102126403 H 0.0 **** 0.06
32390 H 31.77802343988391 240.42369737794107 4.650579393559681 H 0.0 **** 0.06
32391 C 40.96104699074348 152.0177667163126 97.30848785316394 C 0.0 **** -0.24
32392 H 40.104674333453175 152.5501718488176 97.72173863772667 H 0.0 **** 0.06
32393 H 40.63283251359634 151.05914933105478 96.9051300131965 H 0.0 **** 0.06
32394 H 41.697359100133355 151.8479442952898 98.09376894146465 H 0.0 **** 0.06
32395 H 41.409459259384164 152.6133316599536 96.51244173796997 H 0.0 **** 0.06
32396 C 220.87923402469752 184.46674618717802 58.48621546453029 C 0.0 **** -0.24
32397 H 221.31751785136706 183.58180144251193 58.0248992448507 H 0.0 **** 0.06
32398 H 219.8604735900588 184.59965993204958 58.121247399482314 H 0.0 **** 0.06
32399 H 221.4745701500649 185.34316126961286 58.2288109641473 H 0.0 **** 0.06
32400 H 220.8640856323409 184.34295778376892 59.569154764985 H 0.0 **** 0.06
32401 C 152.53721878860824 56.2108474310065 226.3946776044272 C 0.0 **** -0.24
32402 H 152.74208167281708 55.386408022484744 227.07775331835037 H 0.0 **** 0.06
32403 H 153.33418688764425 56.27359926696943 225.6531025008252 H 0.0 **** 0.06
32404 H 152.48798467906718 57.14429306638689 226.95505142073137 H 0.0 **** 0.06
32405 H 151.58524242486553 56.038884454458895 225.89204621842993 H 0.0 **** 0.06
32406 C 60.63453380407114 30.703901825601093 64.58129001402796 C 0.0 **** -0.24
32407 H 61.683994779242795 30.41124513673222 64.53785844836827 H 0.0 **** 0.06
32408 H 60.015365831657846 29.895804446449702 64.192571335727 H 0.0 **** 0.06
32409 H 60.482664005980894 31.60060935864645 63.980919521161326 H 0.0 **** 0.06
32410 H 60.35778240795554 30.90929651928191 65.61565129484214 H 0.0 **** 0.06
32411 C 180.18826585765387 114.64893740696354 168.71087164010555 C 0.0 **** -0.24
32412 H 179.20923127210045 114.30631515770867 169.04698151963652 H 0.0 **** 0.06
32413 H 180.5683916122079 115.39924166430089 169.4039376529652 H 0.0 **** 0.06
32414 H 180.09871428385483 115.08443341237367 167.71607100370397 H 0.0 **** 0.06
32415 H 180.87589443336532 113.80393452952794 168.67748531315723 H 0.0 **** 0.06
32416 C 58.35769932885509 164.9412850429778 221.41200038635935 C 0.0 **** -0.24
32417 H 58.371167504997146 163.90258922445918 221.0835126957331 H 0.0 **** 0.06
32418 H 57.7058912664655 165.5206201201705 220.75774532036536 H 0.0 **** 0.06
32419 H 59.36789391503814 165.34907151957245 221.37140901042324 H 0.0 **** 0.06
32420 H 57.98644720048625 164.9935307474902 222.4357658956244 H 0.0 **** 0.06
32421 C 10.199851321171522 247.7016555743094 98.52123719944163 C 0.0 **** -0.24
32422 H 10.591579189410979 248.0206508998665 97.55542571287825 H 0.0 **** 0.06
32423 H 10.866185345708345 246.95648497340773 98.95556577389615 H 0.0 **** 0.06
32424 H 9.208749651467272 247.26838545365428 98.38535101363138 H 0.0 **** 0.06
32425 H 10.132734753841646 248.56177842549084 99.18701990517653 H 0.0 **** 0.06
32426 C 23.616969111227235 132.75898647526475 8.84667700667839 C 0.0 **** -0.24
32427 H 22.64158618163438 132.27081871450807 8.828622489210687 H 0.0 **** 0.06
32428 H 24.394398624480885 132.00914712617165 8.99449404037884 H 0.0 **** 0.06
32429 H 23.646799801090054 133.48129978061377 9.662508600167115 H 0.0 **** 0.06
32430 H 23.78244831116578 133.27341613818854 7.8998938591560375 H 0.0 **** 0.06
32431 C 113.57618933874303 204.36125239727474 116.78374454807638 C 0.0 **** -0.24
32432 H 113.71733596743022 203.77693555099142 117.6932240834694 H 0.0 **** 0.06
32433 H 113.67647957058568 205.4214978079549 117.01508651063102 H 0.0 **** 0.06
32434 H 112.58208117539422 204.16953513628363 116.37997354884288 H 0.0 **** 0.06
32435 H 114.32878522200846 204.07533087288462 116.04813262670217 H 0.0 **** 0.06
32436 C 40.699034232202564 74.91039149477675 45.609944338597955 C 0.0 **** -0.24
32437 H 41.725297853604886 74.57562240808443 45.45758879750761 H 0.0 **** 0.06
32438 H 40.39577318960875 75.54375462927348 44.775643757639244 H 0.0 **** 0.06
32439 H 40.63589359840202 75.47687079349862 46.539199436210225 H 0.0 **** 0.06
32440 H 40.03975929459625 74.04424317334303 45.6666383476645 H 0.0 **** 0.06
32441 C 53.03101533148005 102.0307032248798 111.84900614646935 C 0.0 **** -0.24
32442 H 53.31006750071684 101.04863405354601 112.22924500168523 H 0.0 **** 0.06
32443 H 53.55588939511307 102.21929699290104 110.91241862864635 H 0.0 **** 0.06
32444 H 53.305179181599 102.79286286594098 112.57923038966436 H 0.0 **** 0.06
32445 H 51.95520173957897 102.06160876202478 111.67728681286766 H 0.0 **** 0.06
32446 C 66.9302230058407 150.12241379172414 39.146374441665984 C 0.0 **** -0.24
32447 H 66.87881751662127 150.9894343311956 39.8049482254676 H 0.0 **** 0.06
32448 H 66.47033628090023 149.2650525288266 39.639460083001524 H 0.0 **** 0.06
32449 H 67.97319512332302 149.89794414270963 38.9229195067293 H 0.0 **** 0.06
32450 H 66.3977719078656 150.3380509994275 38.22009910955771 H 0.0 **** 0.06
32451 C 12.474932373188352 235.5466338047278 55.56785623359039 C 0.0 **** -0.24
32452 H 11.527437367034821 235.13286724737657 55.91478710588126 H 0.0 **** 0.06
32453 H 12.64098729251404 236.51548761855886 56.039704331964344 H 0.0 **** 0.06
32454 H 12.442286766356261 235.67014137518441 54.48511862978833 H 0.0 **** 0.06
32455 H 13.28616355598703 234.8691247000394 55.8326352765755 H 0.0 **** 0.06
32456 C 204.67045143909502 227.7819879995585 152.9759787829564 C 0.0 **** -0.24
32457 H 205.55983977341293 227.19731970690543 152.73919416496727 H 0.0 **** 0.06
32458 H 204.2578548143921 227.44575856689642 153.92690168071258 H 0.0 **** 0.06
32459 H 203.9282820366614 227.64778354804668 152.18921369117706 H 0.0 **** 0.06
32460 H 204.93691200604061 228.83593867622682 153.04789745640704 H 0.0 **** 0.06
32461 C 20.319903536005796 108.57787172240913 156.35389685002167 C 0.0 **** -0.24
32462 H 20.32615818809373 107.4896485725171 156.3077686828394 H 0.0 **** 0.06
32463 H 19.834766706904617 108.89968347351075 157.2758388388134 H 0.0 **** 0.06
32464 H 19.774078209571286 108.97474683322079 155.49830733260063 H 0.0 **** 0.06
32465 H 21.34509585323056 108.94839110232462 156.33456613708213 H 0.0 **** 0.06
32466 C 159.9834418094819 66.65799025313439 90.23607476521929 C 0.0 **** -0.24
32467 H 159.79184063040688 65.905218764988 89.47192449461474 H 0.0 **** 0.06
32468 H 160.9822479543711 66.51001035022645 90.64904912444379 H 0.0 **** 0.06
32469 H 159.24435818397075 66.56436214486988 91.03089973198925 H 0.0 **** 0.06
32470 H 159.91725982502297 67.65100651339387 89.79180883334092 H 0.0 **** 0.06
32471 C 207.17365131900732 35.85940887386019 75.68053917080573 C 0.0 **** -0.24
32472 H 207.88502953779988 36.655404665647296 75.4590119612574 H 0.0 **** 0.06
32473 H 206.91064207810865 35.892087621155554 76.7374610222993 H 0.0 **** 0.06
32474 H 207.62531979398568 34.8952038785051 75.44752869122149 H 0.0 **** 0.06
32475 H 206.2768312407991 35.995931368025964 75.07652267961308 H 0.0 **** 0.06
32476 C 210.96609220303753 118.76625193822207 193.27829929543202 C 0.0 **** -0.24
32477 H 211.31213284271553 119.7160141971172 193.6871123386297 H 0.0 **** 0.06
32478 H 210.50818299593854 118.1746973036197 194.07269080246283 H 0.0 **** 0.06
32479 H 211.81201373161593 118.2211850645293 192.8608685486945 H 0.0 **** 0.06
32480 H 210.23189377198565 118.95413292266795 192.49450916144315 H 0.0 **** 0.06
32481 C 142.02236229229285 153.7146808720747 37.842484993190695 C 0.0 **** -0.24
32482 H 142.10165696756675 152.80124672659977 37.253442566268944 H 0.0 **** 0.06
32483 H 141.25625663315222 154.35973427837246 37.410896297114505 H 0.0 **** 0.06
32484 H 142.98058167203502 154.23387424876753 37.83715360081851 H 0.0 **** 0.06
32485 H 141.75100884142714 153.46300094490576 38.8679527364509 H 0.0 **** 0.06
32486 C 213.96608353579308 2.987245432022249 152.1637611155027 C 0.0 **** -0.24
32487 H 214.60741956655005 2.277627751021882 151.64186418777356 H 0.0 **** 0.06
32488 H 213.70884453118197 3.8063856826102835 151.49278726632562 H 0.0 **** 0.06
32489 H 214.49137722918636 3.379581496478238 153.0345403742175 H 0.0 **** 0.06
32490 H 213.05501203061965 2.4821943177653907 152.48684418100243 H 0.0 **** 0.06
32491 C 216.92147820256727 117.70637779511529 231.3342353137245 C 0.0 **** -0.24
32492 H 216.3916846222951 116.77315648304904 231.14508905596063 H 0.0 **** 0.06
32493 H 217.8576000294049 117.4943140742642 231.85270661687832 H 0.0 **** 0.06
32494 H 216.30295889789517 118.35669594237953 231.9531672571247 H 0.0 **** 0.06
32495 H 217.13478168409296 118.20209162234963 230.38707587749505 H 0.0 **** 0.06
32496 C 197.89164667835297 141.69130619293824 227.01873207627298 C 0.0 **** -0.24
32497 H 197.39729447177797 140.84122242145935 227.48998896607077 H 0.0 **** 0.06
32498 H 197.19369650063612 142.18829004984906 226.3440275656683 H 0.0 **** 0.06
32499 H 198.7558262313508 141.34144039939315 226.45446867067108 H 0.0 **** 0.06
32500 H 198.21755216255872 142.3922731681894 227.7861455686928 H 0.0 **** 0.06
32501 C 175.78569458383316 240.36365246549167 82.93673428920002 C 0.0 **** -0.24
32502 H 176.47235817826197 241.07308974653984 82.47625257488656 H 0.0 **** 0.06
32503 H 175.05855055062017 240.02829959854756 82.19622865604836 H 0.0 **** 0.06
32504 H 175.26537495357755 240.84586306989863 83.76457061903724 H 0.0 **** 0.06
32505 H 176.3455025151285 239.5064797381229 83.31038059394885 H 0.0 **** 0.06
32506 C 158.12484930424887 158.82512418414709 197.59248457164773 C 0.0 **** -0.24
32507 H 158.7336891615846 157.95347157892164 197.35172673449384 H 0.0 **** 0.06
32508 H 158.6849772347333 159.48722955571324 198.25384284165392 H 0.0 **** 0.06
32509 H 157.21063523793845 158.50314508261005 198.08977186792774 H 0.0 **** 0.06
32510 H 157.87217792166913 159.3559185389077 196.6742389068933 H 0.0 **** 0.06
32511 C 100.76635754976846 228.46891091523412 153.70244346000237 C 0.0 **** -0.24
32512 H 101.13795980352509 227.92515322343138 154.5711453131103 H 0.0 **** 0.06
32513 H 101.51279163393153 228.43788840078565 152.90868762137714 H 0.0 **** 0.06
32514 H 100.57154530222894 229.50540448054082 153.9788215555981 H 0.0 **** 0.06
32515 H 99.84342592659308 228.0064270212464 153.35226859242547 H 0.0 **** 0.06
32516 C 12.539311197904894 53.19320390923809 108.91260107939246 C 0.0 **** -0.24
32517 H 11.917946673005957 53.556559140665286 108.0937331550436 H 0.0 **** 0.06
32518 H 11.914036963026575 53.00002713294408 109.78393363791321 H 0.0 **** 0.06
32519 H 13.289211911206834 53.94408299978741 109.16077053212359 H 0.0 **** 0.06
32520 H 13.035470894677204 52.27097796496304 108.60908594168717 H 0.0 **** 0.06
32521 C 84.79604667698626 220.26639391046504 184.5550193592084 C 0.0 **** -0.24
32522 H 83.74390295826501 220.28215925062133 184.27246917181716 H 0.0 **** 0.06
32523 H 85.10875733570333 221.26778078798378 184.85074209026664 H 0.0 **** 0.06
32524 H 85.3944412550172 219.93532258080404 183.7061305121839 H 0.0 **** 0.06
32525 H 84.93812036343962 219.57884518536792 185.38940380121062 H 0.0 **** 0.06
32526 C 212.2544902616837 207.62825812592442 109.33373670953503 C 0.0 **** -0.24
32527 H 211.71820534741613 207.95097876166793 108.44179588004212 H 0.0 **** 0.06
32528 H 212.79726150127016 206.70772686570953 109.11882940371945 H 0.0 **** 0.06
32529 H 211.5426509583796 207.4508038088711 110.14033657784589 H 0.0 **** 0.06
32530 H 212.9581124246567 208.40400127905704 109.63531750861054 H 0.0 **** 0.06
32531 C 148.27142120685446 58.844866860393665 105.4460273354716 C 0.0 **** -0.24
32532 H 147.45964405252107 59.43969621168955 105.86442482738104 H 0.0 **** 0.06
32533 H 147.86472664029645 58.12582573548232 104.73395221822452 H 0.0 **** 0.06
32534 H 148.78260907145287 58.31263505136201 106.24877564361233 H 0.0 **** 0.06
32535 H 148.97796474693348 59.50093162476119 104.93751202493283 H 0.0 **** 0.06
32536 C 18.330054731127007 129.14647603502962 22.016442395422786 C 0.0 **** -0.24
32537 H 18.26095513795417 128.71432396464203 23.014969014016316 H 0.0 **** 0.06
32538 H 19.378241012976588 129.31151080590178 21.76383671862746 H 0.0 **** 0.06
32539 H 17.79753319441042 130.09729121559894 21.995067779163605 H 0.0 **** 0.06
32540 H 17.88551482077007 128.46307080351664 21.293242476627114 H 0.0 **** 0.06
32541 C 2.364183641126658 35.675020225003905 69.67205485829393 C 0.0 **** -0.24
32542 H 2.8198785649997546 36.65843112380006 69.78385244892937 H 0.0 **** 0.06
32543 H 3.1453941466161837 34.91850471144065 69.60099862322403 H 0.0 **** 0.06
32544 H 1.756045489800215 35.656365098613236 68.76858514214325 H 0.0 **** 0.06
32545 H 1.7342888838697377 35.46669660228652 70.53820695480056 H 0.0 **** 0.06
32546 C 96.5570961695789 53.058538668162214 240.0165742393346 C 0.0 **** -0.24
32547 H 96.45724111220923 54.09477614125987 240.3399786894043 H 0.0 **** 0.06
32548 H 95.76538456456646 52.45986085233116 240.46683435854635 H 0.0 **** 0.06
32549 H 97.52746421536128 52.6721983725252 240.3271778346027 H 0.0 **** 0.06
32550 H 96.4777430978049 53.00981524214245 238.93019277109585 H 0.0 **** 0.06
32551 C 218.07640309480675 77.63762348523989 144.057790792026 C 0.0 **** -0.24
32552 H 219.1449102990122 77.7996721043987 144.20275001799422 H 0.0 **** 0.06
32553 H 217.55784431649633 78.59666467919448 144.07742138042428 H 0.0 **** 0.06
32554 H 217.6941134892841 77.00103940427533 144.85577320723985 H 0.0 **** 0.06
32555 H 217.9100303104062 77.1533589808098 143.09575516298816 H 0.0 **** 0.06
32556 C 204.05770986934783 85.26605282450251 142.04593491768173 C 0.0 **** -0.24
32557 H 203.9105097970184 85.15726393364122 140.97120253733425 H 0.0 **** 0.06
32558 H 204.93189394888003 85.89060431749667 142.23119743801087 H 0.0 **** 0.06
32559 H 204.21155190341426 84.28339283709272 142.4914251457619 H 0.0 **** 0.06
32560 H 203.17715357160517 85.73160180486505 142.48815128806697 H 0.0 **** 0.06
32561 C 104.76764633047276 166.72086453518466 1.7939640114473718 C 0.0 **** -0.24
32562 H 103.91154621000558 166.0993535825064 2.0545120462170416 H 0.0 **** 0.06
32563 H 105.67630414081373 166.27559872134842 2.1991700181726515 H 0.0 **** 0.06
32564 H 104.63342133181615 167.71830280403543 2.2115488657923663 H 0.0 **** 0.06
32565 H 104.84981859850339 166.7893250102105 0.7086315908162533 H 0.0 **** 0.06
32566 C 71.30297781680159 101.00789594449273 13.266909167284183 C 0.0 **** -0.24
32567 H 72.14368162103045 101.62684350428842 12.954407014778752 H 0.0 **** 0.06
32568 H 71.58942720977441 99.95688092246948 13.21870391204422 H 0.0 **** 0.06
32569 H 70.45567312888818 101.18447709110214 12.60495869663643 H 0.0 **** 0.06
32570 H 71.02522591947377 101.2626870511711 14.289219264849379 H 0.0 **** 0.06
32571 C 164.8901134866093 106.05520150393181 188.7199764227729 C 0.0 **** -0.24
32572 H 163.88325479698753 106.29445148485243 188.3779594734442 H 0.0 **** 0.06
32573 H 164.8803172119783 105.0948070493636 189.23636010130855 H 0.0 **** 0.06
32574 H 165.23583886856426 106.83241708768267 189.40274101017891 H 0.0 **** 0.06
32575 H 165.5618844313471 106.0012020586052 187.86286415831614 H 0.0 **** 0.06
32576 C 173.95285446703167 12.991403813262735 10.98609177657822 C 0.0 **** -0.24
32577 H 174.35850267176028 12.043759066489514 11.339432306978424 H 0.0 **** 0.06
32578 H 174.72987202742274 13.755479250477862 11.023105480427802 H 0.0 **** 0.06
32579 H 173.1193294896427 13.289589598321669 11.622430462820859 H 0.0 **** 0.06
32580 H 173.60371353536306 12.877585567844989 9.960566266976983 H 0.0 **** 0.06
32581 C 248.55259239920923 40.132052844412556 13.06759131372209 C 0.0 **** -0.24
32582 H 248.42189004911145 39.46233991175933 12.217481877036604 H 0.0 **** 0.06
32583 H 248.26035029578924 39.61757256273191 13.983585949034577 H 0.0 **** 0.06
32584 H 247.92902063091066 41.01598788388675 12.932840925441681 H 0.0 **** 0.06
32585 H 249.59858309471275 40.43148568830273 13.136249958894155 H 0.0 **** 0.06
32586 C 36.77435976826396 22.447925191561694 139.16359378208992 C 0.0 **** -0.24
32587 H 36.83885160828939 22.1156989669781 138.12712520363732 H 0.0 **** 0.06
32588 H 37.50106468433549 23.24147713812529 139.3361157723154 H 0.0 **** 0.06
32589 H 36.98702288840249 21.609354529686044 139.82640311208064 H 0.0 **** 0.06
32590 H 35.77037074386598 22.823299824627597 139.36315454689486 H 0.0 **** 0.06
32591 C 108.73532380512879 113.74398445549201 232.6524277210223 C 0.0 **** -0.24
32592 H 109.75414615724347 113.94667115984524 232.3212469694973 H 0.0 **** 0.06
32593 H 108.05878785441456 113.80046317078629 231.79859000286154 H 0.0 **** 0.06
32594 H 108.4420411552324 114.4825304109863 233.3985803387746 H 0.0 **** 0.06
32595 H 108.68694120126227 112.74648083148122 233.0891555683329 H 0.0 **** 0.06
32596 C 152.93403751820534 0.24576171289575655 15.902241532870349 C 0.0 **** -0.24
32597 H 153.75991139672627 0.752988111324612 16.402414803213105 H 0.0 **** 0.06
32598 H 153.00807719263562 0.4077641535093335 14.82634798966923 H 0.0 **** 0.06
32599 H 151.9885614935315 0.6460475014972644 16.26625654522958 H 0.0 **** 0.06
32600 H 152.9836024186688 -0.8221285900842759 16.114531873339885 H 0.0 **** 0.06
32601 C 177.14767815590835 136.83874757632316 66.56336774150336 C 0.0 **** -0.24
32602 H 176.6840106312883 136.2367418006624 65.78136323397777 H 0.0 **** 0.06
32603 H 178.2167876437979 136.92604705128156 66.36843883496061 H 0.0 **** 0.06
32604 H 176.99251430981928 136.35938276549967 67.5302095762369 H 0.0 **** 0.06
32605 H 176.6972632286903 137.83141142411625 66.57348950816962 H 0.0 **** 0.06
32606 C 230.2390365215801 172.4418614175548 99.47114170969817 C 0.0 **** -0.24
32607 H 231.21977045162384 172.903943538008 99.5829524386798 H 0.0 **** 0.06
32608 H 230.35927238203925 171.41076431469233 99.1381977580254 H 0.0 **** 0.06
32609 H 229.6585476248082 172.99752390451548 98.73348092885882 H 0.0 **** 0.06
32610 H 229.71922906723415 172.45695605107503 100.4287062893712 H 0.0 **** 0.06
32611 C 57.655867650948124 210.18543795119405 168.5710981602354 C 0.0 **** -0.24
32612 H 56.96896278115523 210.50948488141375 167.78980637880267 H 0.0 **** 0.06
32613 H 57.22858803315981 210.41463477999548 169.5482360872562 H 0.0 **** 0.06
32614 H 58.60619506820029 210.70686876002674 168.4596025358572 H 0.0 **** 0.06
32615 H 57.81855995451289 209.11123718934684 168.4885966590203 H 0.0 **** 0.06
32616 C 77.24598506341925 53.204616811517425 42.57805662952288 C 0.0 **** -0.24
32617 H 78.33284795085328 53.29242472340587 42.580157148566315 H 0.0 **** 0.06
32618 H 76.82407647580385 53.9390226864835 41.89074466274846 H 0.0 **** 0.06
32619 H 76.8649057573837 53.38560819598206 43.58286618641958 H 0.0 **** 0.06
32620 H 76.9638016116914 52.20268722354014 42.256334453444055 H 0.0 **** 0.06
32621 C 101.12624971078318 198.59524765636152 80.4337250855989 C 0.0 **** -0.24
32622 H 100.46110767907626 198.98213250488652 81.20550857673896 H 0.0 **** 0.06
32623 H 101.57855491346973 197.66430581092453 80.77611208387202 H 0.0 **** 0.06
32624 H 101.90903306148522 199.32665430982723 80.22889316092841 H 0.0 **** 0.06
32625 H 100.55659018392089 198.41017282226562 79.52352461878291 H 0.0 **** 0.06
32626 C 102.5056223356786 158.81500641014048 16.711877216929025 C 0.0 **** -0.24
32627 H 102.19445152566448 159.7192503684144 16.187087566340352 H 0.0 **** 0.06
32628 H 102.94704206219666 159.08585405340048 17.670602798651174 H 0.0 **** 0.06
32629 H 103.24068870229968 158.28148639171985 16.10952234420833 H 0.0 **** 0.06
32630 H 101.63823330039219 158.17498180717578 16.877784877771177 H 0.0 **** 0.06
32631 C 73.75313208028754 55.47789289765137 66.75385326161367 C 0.0 **** -0.24
32632 H 73.12993893239391 55.72527341390938 67.61309347674069 H 0.0 **** 0.06
32633 H 74.37758637271307 54.61726255473772 66.9935067994183 H 0.0 **** 0.06
32634 H 74.38789931121482 56.33006984913041 66.5074073402061 H 0.0 **** 0.06
32635 H 73.11743454175843 55.24056478124177 65.90082772062038 H 0.0 **** 0.06
32636 C 131.51898483785115 246.02049727003353 162.2579639446606 C 0.0 **** -0.24
32637 H 130.66320522265826 245.6816398260022 162.84284210566807 H 0.0 **** 0.06
32638 H 131.34774331053072 247.0453150052975 161.926035437418 H 0.0 **** 0.06
32639 H 131.64501412466484 245.37347593314496 161.38988988259112 H 0.0 **** 0.06
32640 H 132.41701067328717 245.98222963001626 162.8739556235375 H 0.0 **** 0.06
32641 C 163.27883875914145 119.32219486044173 245.51152011908601 C 0.0 **** -0.24
32642 H 162.8315972122898 119.87402607458179 246.33891234097177 H 0.0 **** 0.06
32643 H 163.25599715137437 119.93541905556182 244.6106694563905 H 0.0 **** 0.06
32644 H 162.71462659107814 118.40494121480796 245.3407162682955 H 0.0 **** 0.06
32645 H 164.3113923161636 119.07328868707665 245.75710399683203 H 0.0 **** 0.06
32646 C 177.6548572897549 62.892984050610465 132.6964970467451 C 0.0 **** -0.24
32647 H 177.50858191377984 63.8885645770379 133.1168784336687 H 0.0 **** 0.06
32648 H 178.574867906985 62.87760906099152 132.11223970442467 H 0.0 **** 0.06
32649 H 176.81123244169922 62.642822718801 132.05416926371845 H 0.0 **** 0.06
32650 H 177.72459151629297 62.16510177834439 133.50477490943436 H 0.0 **** 0.06
32651 C 186.8284402024467 56.57577792279551 218.64758005553574 C 0.0 **** -0.24
32652 H 187.33104511091068 55.79308186024693 219.21613502419223 H 0.0 **** 0.06
32653 H 187.32743164665493 57.52967508159267 218.82399246128637 H 0.0 **** 0.06
32654 H 185.78798467403936 56.64465271280406 218.96448559673377 H 0.0 **** 0.06
32655 H 186.86979621493225 56.334242490390665 217.58490988280604 H 0.0 **** 0.06
32656 C 143.12197417154172 103.16334262671509 101.96594553370136 C 0.0 **** -0.24
32657 H 142.95350323437333 103.08472832048511 103.03969126584639 H 0.0 **** 0.06
32658 H 142.29672453311622 102.69044850969001 101.43301705536285 H 0.0 **** 0.06
32659 H 144.05615034707333 102.66301690222559 101.70761894289751 H 0.0 **** 0.06
32660 H 143.18237597938978 104.21469437192232 101.68363417328789 H 0.0 **** 0.06
32661 C 22.17741550194077 10.051983205507753 133.81525234330385 C 0.0 **** -0.24
32662 H 22.309494058303613 10.678925466953984 132.9327183569137 H 0.0 **** 0.06
32663 H 22.282027270153293 10.66115593727173 134.71268062632237 H 0.0 **** 0.06
32664 H 22.932986184311545 9.266662315980255 133.81894136237034 H 0.0 **** 0.06
32665 H 21.185307442043353 9.601078815548789 133.79526743436804 H 0.0 **** 0.06
32666 C 12.156651489008397 59.94398035645901 17.18618202649344 C 0.0 **** -0.24
32667 H 11.933747043944706 58.87701697799537 17.18983257709158 H 0.0 **** 0.06
32668 H 11.949099742261865 60.35414867758004 16.197159881522396 H 0.0 **** 0.06
32669 H 13.20866628991044 60.09636647327528 17.429247672447104 H 0.0 **** 0.06
32670 H 11.535792725831271 60.4481430839748 17.926378557093386 H 0.0 **** 0.06
32671 C 56.9607878566687 22.370893926750483 241.68266156972453 C 0.0 **** -0.24
32672 H 56.13789673788423 21.72814841562277 241.99617231605475 H 0.0 **** 0.06
32673 H 57.90904568187872 21.881958190285815 241.90717329989525 H 0.0 **** 0.06
32674 H 56.905167000063244 23.319215979937013 242.21718862521175 H 0.0 **** 0.06
32675 H 56.890189393815575 22.553740639094855 240.6102141302939 H 0.0 **** 0.06
32676 C 231.35404156320072 203.83112168103256 49.774951782406134 C 0.0 **** -0.24
32677 H 231.65806743078718 204.1720707219875 48.78451217929134 H 0.0 **** 0.06
32678 H 230.32040939245792 203.48631847335284 49.73858067367209 H 0.0 **** 0.06
32679 H 231.43708954965962 204.65502827921992 50.483512658617514 H 0.0 **** 0.06
32680 H 231.9997589892222 203.01246498375343 50.09088971258254 H 0.0 **** 0.06
32681 C 50.10676935257732 134.43834126052727 106.02776329567189 C 0.0 **** -0.24
32682 H 49.81295825558519 134.52975054216935 107.07263502720389 H 0.0 **** 0.06
32683 H 50.91114432539352 133.70670399887783 105.93899725560988 H 0.0 **** 0.06
32684 H 50.452809269349075 135.40423117552749 105.6613692376518 H 0.0 **** 0.06
32685 H 49.25054315002758 134.11068150458354 105.43712097113837 H 0.0 **** 0.06
32686 C 205.34369067354947 97.55615136475913 149.43159548538605 C 0.0 **** -0.24
32687 H 205.465088867875 97.55979135229128 148.34832183610592 H 0.0 **** 0.06
32688 H 204.5937537293952 98.2956215581134 149.71459370753567 H 0.0 **** 0.06
32689 H 206.29481229324455 97.80292636727242 149.90403525704193 H 0.0 **** 0.06
32690 H 205.02147622636852 96.56783198378298 149.75787789388005 H 0.0 **** 0.06
32691 C 83.26747963858614 236.10040288002727 120.69242335329116 C 0.0 **** -0.24
32692 H 83.38151234182459 235.24129253807317 121.35408983992178 H 0.0 **** 0.06
32693 H 84.20635705717717 236.28036724617442 120.16707812775101 H 0.0 **** 0.06
32694 H 83.00497233628116 236.97913305276592 121.28109114073933 H 0.0 **** 0.06
32695 H 82.47870536181588 235.89814726873624 119.96853498678203 H 0.0 **** 0.06
32696 C 58.738604635151006 108.88442550553557 73.23453569522414 C 0.0 **** -0.24
32697 H 58.31023505950648 108.00008660337576 72.76118825775788 H 0.0 **** 0.06
32698 H 59.64859182211924 108.60675266536504 73.76563801504861 H 0.0 **** 0.06
32699 H 58.01909778771329 109.3043544955996 73.93802351804808 H 0.0 **** 0.06
32700 H 58.97444118476545 109.6256832761336 72.4712666704672 H 0.0 **** 0.06
32701 C 210.45433757050887 33.69386096524262 23.488776505762814 C 0.0 **** -0.24
32702 H 211.4175631631465 33.60002403920973 22.986360674910856 H 0.0 **** 0.06
32703 H 210.40193973481288 32.98044776799111 24.31103050725106 H 0.0 **** 0.06
32704 H 209.65272747539018 33.49024216023443 22.77868833639083 H 0.0 **** 0.06
32705 H 210.34604271104314 34.70676664947712 23.8790160292819 H 0.0 **** 0.06
32706 C 224.08324156144437 68.05676648889232 141.35534708513143 C 0.0 **** -0.24
32707 H 224.50724245111144 69.06118317556624 141.32455831268132 H 0.0 **** 0.06
32708 H 223.3067962209301 67.96721822042937 140.5962250260315 H 0.0 **** 0.06
32709 H 223.65166288839265 67.8757385320753 142.33968660757262 H 0.0 **** 0.06
32710 H 224.86709608210543 67.32550031472329 141.16244963748306 H 0.0 **** 0.06
32711 C 31.964152136963804 105.51222025341752 130.18604661635624 C 0.0 **** -0.24
32712 H 32.560474979415375 105.32349816829876 131.07891369178628 H 0.0 **** 0.06
32713 H 32.1508116391291 106.52632276409628 129.83251175470045 H 0.0 **** 0.06
32714 H 30.906870209272 105.39857033371126 130.424372412071 H 0.0 **** 0.06
32715 H 32.24046111108416 104.79958781737488 129.40877450613942 H 0.0 **** 0.06
32716 C 241.3473355564853 126.44330839431993 45.88573634533972 C 0.0 **** -0.24
32717 H 240.80214157953122 126.69204073951082 46.7963736603854 H 0.0 **** 0.06
32718 H 240.73771420028334 126.69411889458416 45.01758344097958 H 0.0 **** 0.06
32719 H 241.5712058621304 125.37715947648528 45.87712656842102 H 0.0 **** 0.06
32720 H 242.27758900326745 127.01051440076836 45.85390177135038 H 0.0 **** 0.06
32721 C 45.96874317725732 118.55564194695415 103.13107512529533 C 0.0 **** -0.24
32722 H 46.50304085784572 117.6694804303985 102.78745857852138 H 0.0 **** 0.06
32723 H 46.22271769181134 119.4018246289674 102.49278022309727 H 0.0 **** 0.06
32724 H 46.2563013183254 118.77668976810241 104.15889648332401 H 0.0 **** 0.06
32725 H 44.89562497646986 118.37349773254363 103.08446643569147 H 0.0 **** 0.06
32726 C 237.30471709803714 117.57291504766147 66.44474853240285 C 0.0 **** -0.24
32727 H 237.13860768685203 116.49528502662812 66.43639517529769 H 0.0 **** 0.06
32728 H 237.35889508196186 117.92366816038057 67.4762254282204 H 0.0 **** 0.06
32729 H 236.48067215099155 118.07111359348715 65.93414721835697 H 0.0 **** 0.06
32730 H 238.23989986038703 117.80042981265555 65.93423037344351 H 0.0 **** 0.06
32731 C 223.06353807756958 6.024829610062483 39.46856424020986 C 0.0 **** -0.24
32732 H 222.1717806066679 6.652017278936441 39.47214405646396 H 0.0 **** 0.06
32733 H 223.61635325498233 6.17515660741627 40.39542061225036 H 0.0 **** 0.06
32734 H 223.69320609014446 6.295379094905698 38.620757810255284 H 0.0 **** 0.06
32735 H 222.76985942505166 4.978563736198055 39.38450391570208 H 0.0 **** 0.06
32736 C 218.0631699966799 105.83293884696599 134.0099355971039 C 0.0 **** -0.24
32737 H 218.71169141350455 106.28217163873003 133.25699041211462 H 0.0 **** 0.06
32738 H 218.31166058820182 104.7776012231964 134.1211987649424 H 0.0 **** 0.06
32739 H 217.02341355288297 105.93117247512225 133.697158894787 H 0.0 **** 0.06
32740 H 218.2054726972776 106.3437224515014 134.9620871692227 H 0.0 **** 0.06
32741 C 29.595824003810947 98.9974614471902 145.54531465978965 C 0.0 **** -0.24
32742 H 30.19022744477745 98.76817856520486 144.66032907345422 H 0.0 **** 0.06
32743 H 28.536835909155144 98.97154114506358 145.28756104319518 H 0.0 **** 0.06
32744 H 29.856992528562657 99.99055683067772 145.91148283721287 H 0.0 **** 0.06
32745 H 29.798979098166626 98.25873739768079 146.3207721747321 H 0.0 **** 0.06
32746 C 133.8223691622946 177.01112801096423 118.30589164479355 C 0.0 **** -0.24
32747 H 134.37068117727588 176.4698939195583 119.07673154930498 H 0.0 **** 0.06
32748 H 133.0587931821947 176.36038781030817 117.87948047560698 H 0.0 **** 0.06
32749 H 134.51230629572203 177.325743532008 117.52290671869915 H 0.0 **** 0.06
32750 H 133.34809986351524 177.88815004914852 118.74662120830811 H 0.0 **** 0.06
32751 C 223.54498902472906 122.32215787632356 209.04744070871115 C 0.0 **** -0.24
32752 H 224.18811228371965 121.74009830552671 209.70804551162271 H 0.0 **** 0.06
32753 H 222.86418053283086 121.65299394906478 208.52171739686997 H 0.0 **** 0.06
32754 H 224.15780219698217 122.85897680752586 208.32456727433058 H 0.0 **** 0.06
32755 H 222.96996276238747 123.03606482724905 209.63782891966082 H 0.0 **** 0.06
32756 C 182.70251334022635 77.99100276362694 74.07937429061863 C 0.0 **** -0.24
32757 H 183.70112282151666 78.4231237651043 74.15317893554666 H 0.0 **** 0.06
32758 H 182.08636115037586 78.60957761038037 73.42734729709045 H 0.0 **** 0.06
32759 H 182.2520187303391 77.94638085148722 75.07116008658394 H 0.0 **** 0.06
32760 H 182.77271099721037 76.98440026355433 73.666042373409 H 0.0 **** 0.06
32761 C 118.1993929109131 100.23242796344832 142.0613075573743 C 0.0 **** -0.24
32762 H 117.15224560105372 99.99257230159816 142.24483776844005 H 0.0 **** 0.06
32763 H 118.5646477372029 99.64437724374599 141.2185823087775 H 0.0 **** 0.06
32764 H 118.78664296310907 99.99764507735827 142.95003021282403 H 0.0 **** 0.06
32765 H 118.29475695765962 101.29365355743997 141.8333086576716 H 0.0 **** 0.06
32766 C 181.46570903003357 156.96663657958257 131.27638456453002 C 0.0 **** -0.24
32767 H 180.51055832036562 156.8835482349515 131.79311660303046 H 0.0 **** 0.06
32768 H 181.84725190980032 157.98315122895235 131.37961528429898 H 0.0 **** 0.06
32769 H 181.32924444417807 156.7359693564825 130.2198952758738 H 0.0 **** 0.06
32770 H 182.17670078616248 156.26495037050282 131.71284963576284 H 0.0 **** 0.06
32771 C 0.7915453098128893 70.37233586806676 78.16922088081398 C 0.0 **** -0.24
32772 H -0.23105357880648114 70.72914888211923 78.04481606207148 H 0.0 **** 0.06
32773 H 1.0582501822090933 69.73277443417723 77.32644731981901 H 0.0 **** 0.06
32774 H 0.8663048576575392 69.80283907469945 79.09576013211895 H 0.0 **** 0.06
32775 H 1.4707657894354895 71.22331308450887 78.20900625888564 H 0.0 **** 0.06
32776 C 137.99084664395113 5.01127205843828 75.92016551253701 C 0.0 **** -0.24
32777 H 138.3187617397247 5.837535209578888 76.55071405264798 H 0.0 **** 0.06
32778 H 138.58735387421518 4.99139675415968 75.00784502615076 H 0.0 **** 0.06
32779 H 136.93955162602248 5.145842449765212 75.66364616796486 H 0.0 **** 0.06
32780 H 138.11593707413812 4.071636037671368 76.45818233481756 H 0.0 **** 0.06
32781 C 59.02975153551782 107.35989303972602 174.33092892341344 C 0.0 **** -0.24
32782 H 59.34013944298576 107.44270054128944 175.37163244301416 H 0.0 **** 0.06
32783 H 57.96429492366525 107.132214439786 174.28644025830286 H 0.0 **** 0.06
32784 H 59.592010176852654 106.5612093315693 173.84646516853914 H 0.0 **** 0.06
32785 H 59.22194774468932 108.30197527929329 173.81761105047818 H 0.0 **** 0.06
32786 C 86.45079053393675 151.0234346008207 225.31888409289252 C 0.0 **** -0.24
32787 H 87.11516486104497 150.61928127411903 226.08230953501737 H 0.0 **** 0.06
32788 H 86.61640658753021 150.49774754248384 224.3786048755449 H 0.0 **** 0.06
32789 H 86.65700384482327 152.08498194307748 225.1840958349731 H 0.0 **** 0.06
32790 H 85.41559298602346 150.89131007106238 225.63247890783668 H 0.0 **** 0.06
32791 C 137.8438375933798 84.30537899349582 148.7975959012853 C 0.0 **** -0.24
32792 H 138.5185815671757 84.0506505999991 149.6141095706948 H 0.0 **** 0.06
32793 H 137.44452855009527 83.39082718355652 148.35829549029185 H 0.0 **** 0.06
32794 H 138.3890977533907 84.86554030484493 148.03750101290322 H 0.0 **** 0.06
32795 H 137.02381509417793 84.9126221407945 149.18030653021364 H 0.0 **** 0.06
32796 C 118.29126438190676 24.155115094098022 99.78461444762152 C 0.0 **** -0.24
32797 H 118.36433196888342 23.090775521148743 100.00967216714213 H 0.0 **** 0.06
32798 H 119.24969963370805 24.634704008754653 99.98275053153827 H 0.0 **** 0.06
32799 H 117.52201452692722 24.60705045055535 100.41072519046722 H 0.0 **** 0.06
32800 H 118.0291044615204 24.286977513814634 98.7350211720416 H 0.0 **** 0.06
32801 C 243.09679576177072 63.2699082173871 176.59917388492897 C 0.0 **** -0.24
32802 H 242.9077114671453 62.255850045840646 176.9507954420382 H 0.0 **** 0.06
32803 H 242.23722074483163 63.623209330677554 176.02875062794283 H 0.0 **** 0.06
32804 H 243.98150830294279 63.27504344997979 175.9629609393216 H 0.0 **** 0.06
32805 H 243.26067817438212 63.927207143057274 177.45376048502325 H 0.0 **** 0.06
32806 C 161.6299572050034 74.01543273662045 223.6983929993944 C 0.0 **** -0.24
32807 H 162.08162685737622 74.09409335432883 224.68742667127196 H 0.0 **** 0.06
32808 H 161.77323602161366 74.95062465085005 223.1584515033274 H 0.0 **** 0.06
32809 H 160.56270114982422 73.81531007760898 223.80117927353126 H 0.0 **** 0.06
32810 H 162.1001306697466 73.20067185575851 223.14835374380857 H 0.0 **** 0.06
32811 C 48.27928547952823 108.70626535794304 200.06800204655764 C 0.0 **** -0.24
32812 H 47.48501131232817 109.3524068369502 199.69623963502454 H 0.0 **** 0.06
32813 H 49.22212300078732 109.25451756806669 200.07334112547156 H 0.0 **** 0.06
32814 H 48.37054602217103 107.83322854521145 199.4219433772519 H 0.0 **** 0.06
32815 H 48.04012569230886 108.38412537927331 201.0814565344228 H 0.0 **** 0.06
32816 C 180.79699062536707 236.43848547911574 118.2089064180602 C 0.0 **** -0.24
32817 H 181.170708445893 235.41757859442168 118.28561814805252 H 0.0 **** 0.06
32818 H 179.83860103281117 236.43605085323958 117.68998828625874 H 0.0 **** 0.06
32819 H 181.51058568439464 237.04603460903948 117.65219938827394 H 0.0 **** 0.06
32820 H 180.6680335754672 236.85441046096352 119.20881044883052 H 0.0 **** 0.06
32821 C 84.6373034001364 97.15323296041714 56.79824966910846 C 0.0 **** -0.24
32822 H 85.5373374443291 97.3450127964187 56.21383903819978 H 0.0 **** 0.06
32823 H 84.68261652232908 96.1461705146707 57.214320014666185 H 0.0 **** 0.06
32824 H 83.76191654141084 97.24226801682408 56.155667249494286 H 0.0 **** 0.06
32825 H 84.56909551105545 97.87811567699603 57.609429858894515 H 0.0 **** 0.06
32826 C 14.14196561586246 233.0003972226129 239.26062018021196 C 0.0 **** -0.24
32827 H 14.782467279460064 232.3778817071205 238.63607505114078 H 0.0 **** 0.06
32828 H 13.769610305674917 233.841104555261 238.67381758210797 H 0.0 **** 0.06
32829 H 14.71560729930792 233.37500666325582 240.10825486148488 H 0.0 **** 0.06
32830 H 13.301568442879102 232.40892970769494 239.62319890856338 H 0.0 **** 0.06
32831 C 219.14969164832226 110.44512638502647 137.17430789123375 C 0.0 **** -0.24
32832 H 218.22266460082278 109.90514954325229 136.9801650626443 H 0.0 **** 0.06
32833 H 219.7677980373915 110.43999625716862 136.27616327654493 H 0.0 **** 0.06
32834 H 219.68804811111576 109.96043391246829 137.98883480674937 H 0.0 **** 0.06
32835 H 218.92041546798237 111.47353076233185 137.45190009308297 H 0.0 **** 0.06
32836 C 154.18022309175407 2.794563785684332 85.40130380461773 C 0.0 **** -0.24
32837 H 153.39718312974054 3.3972628261445266 84.94024105174958 H 0.0 **** 0.06
32838 H 155.06115572758202 2.7897179575154354 84.75937563225182 H 0.0 **** 0.06
32839 H 153.82197099676225 1.773953870879538 85.5339363881208 H 0.0 **** 0.06
32840 H 154.43921630877696 3.21739102564257 86.3720206573694 H 0.0 **** 0.06
32841 C 194.91943928042951 192.64328352093798 235.9958194848523 C 0.0 **** -0.24
32842 H 195.56329154672088 192.413483820279 236.84457735511108 H 0.0 **** 0.06
32843 H 193.94015086340102 192.18940165835332 236.1492829158466 H 0.0 **** 0.06
32844 H 195.36512979536914 192.24564699430903 235.08346333902858 H 0.0 **** 0.06
32845 H 194.80993078565962 193.72395185343646 235.90610097144145 H 0.0 **** 0.06
32846 C 31.57125771919104 14.465683980585425 68.69233774123606 C 0.0 **** -0.24
32847 H 31.971457619862946 15.428509914886888 68.37235048643785 H 0.0 **** 0.06
32848 H 32.258061750270514 13.671675934862208 68.39689226697149 H 0.0 **** 0.06
32849 H 30.601306077830344 14.302144214681391 68.22329710113283 H 0.0 **** 0.06
32850 H 31.45654074859081 14.463112318820038 69.77634049653372 H 0.0 **** 0.06
32851 C 59.3511367521468 236.74342032391044 238.12791901889122 C 0.0 **** -0.24
32852 H 59.85452873526512 236.16419860431242 238.90154959813728 H 0.0 **** 0.06
32853 H 59.54983733861758 236.29861477662314 237.15293406033675 H 0.0 **** 0.06
32854 H 59.72276666301036 237.768891331136 238.14234154713947 H 0.0 **** 0.06
32855 H 58.277804930706 236.74430675419228 238.31549720487516 H 0.0 **** 0.06
32856 C 22.43023573258651 19.363114923050986 84.93950621974543 C 0.0 **** -0.24
32857 H 21.80089360295203 18.897010547616688 84.18116014627361 H 0.0 **** 0.06
32858 H 21.908154442364193 20.220614684705737 85.36652129535824 H 0.0 **** 0.06
32859 H 23.362893972997895 19.69533696688515 84.48352520082392 H 0.0 **** 0.06
32860 H 22.646567261134976 18.640308730480953 85.7252628186742 H 0.0 **** 0.06
32861 C 106.97170508898796 87.33809036627963 61.670670395018504 C 0.0 **** -0.24
32862 H 107.34807628468414 86.58532117760845 60.97837000085124 H 0.0 **** 0.06
32863 H 105.93616921302598 87.57238289773056 61.42582550669411 H 0.0 **** 0.06
32864 H 107.57817261051346 88.23983260936467 61.59112397264175 H 0.0 **** 0.06
32865 H 107.0260213713689 86.95292072498407 62.689021346460464 H 0.0 **** 0.06
32866 C 212.41498436733085 68.17805871090826 67.60169671437865 C 0.0 **** -0.24
32867 H 213.08631391194317 67.56258420950536 67.0018064227778 H 0.0 **** 0.06
32868 H 212.8378333656683 69.17648512386128 67.71140992048299 H 0.0 **** 0.06
32869 H 212.2891834322994 67.72553575796053 68.58591553273803 H 0.0 **** 0.06
32870 H 211.44591709972485 68.24612491720654 67.10714520700532 H 0.0 **** 0.06
32871 C 10.291325799913963 117.19769955824 108.39671960589789 C 0.0 **** -0.24
32872 H 10.69286816523342 116.99505406280932 109.39076896272405 H 0.0 **** 0.06
32873 H 9.206307445030632 117.09110067683852 108.41562531144214 H 0.0 **** 0.06
32874 H 10.71354088018964 116.48942983097041 107.68415663735297 H 0.0 **** 0.06
32875 H 10.552498411914911 118.21257384603038 108.10007234556932 H 0.0 **** 0.06
32876 C 129.54676872598483 134.58414603535766 206.2314858823919 C 0.0 **** -0.24
32877 H 128.98718460503133 134.6358674714182 207.165545877995 H 0.0 **** 0.06
32878 H 129.69794738501918 133.54053885408408 205.95643201738466 H 0.0 **** 0.06
32879 H 130.51419202566606 135.07018559629134 206.3607850737113 H 0.0 **** 0.06
32880 H 128.9879018368885 135.09130983072558 205.44467760906295 H 0.0 **** 0.06
32881 C 2.552259733931848 230.4667329764259 43.05384527221875 C 0.0 **** -0.24
32882 H 2.796313022244135 231.52511815284996 43.14595597214611 H 0.0 **** 0.06
32883 H 3.323606797605521 229.9674742362207 42.46619826849911 H 0.0 **** 0.06
32884 H 1.5882832712656665 230.35813747616515 42.556483262389975 H 0.0 **** 0.06
32885 H 2.502341984351105 230.0173342729414 44.04553957529194 H 0.0 **** 0.06
32886 C 222.9968811775579 193.65298513379244 91.59208290342656 C 0.0 **** -0.24
32887 H 223.18330751035433 193.76115467297782 92.66119896613839 H 0.0 **** 0.06
32888 H 222.57494856681677 192.66764224699713 91.39515440713416 H 0.0 **** 0.06
32889 H 223.93443709484566 193.76308827486164 91.04781480577296 H 0.0 **** 0.06
32890 H 222.29580083054483 194.42124854587834 91.26673963739799 H 0.0 **** 0.06
32891 C 33.80169819834833 234.77981990693263 219.1304808444217 C 0.0 **** -0.24
32892 H 33.85217291348714 235.85357287298098 218.9533949107173 H 0.0 **** 0.06
32893 H 34.713486911216634 234.3078948790632 218.76345129951872 H 0.0 **** 0.06
32894 H 32.94056256436251 234.36482327186266 218.60601465007738 H 0.0 **** 0.06
32895 H 33.70128901052641 234.59233600503634 220.1993027874098 H 0.0 **** 0.06
32896 C 102.94923317387438 131.0705087261214 87.61976992624884 C 0.0 **** -0.24
32897 H 103.12363448511437 130.02530556950956 87.87651711657642 H 0.0 **** 0.06
32898 H 103.78831064104466 131.44449277987488 87.03166320374223 H 0.0 **** 0.06
32899 H 102.85427346707041 131.65831452239112 88.53307577559102 H 0.0 **** 0.06
32900 H 102.03236442693009 131.15225324523837 87.03712244198024 H 0.0 **** 0.06
32901 C 215.4006805239191 134.8305745458495 150.86059298095137 C 0.0 **** -0.24
32902 H 214.62490967142574 135.214445441953 151.5238533357371 H 0.0 **** 0.06
32903 H 216.09835018824555 134.21968293694394 151.4322047694641 H 0.0 **** 0.06
32904 H 215.93515941003164 135.66571405457472 150.40626391042824 H 0.0 **** 0.06
32905 H 214.94214601397582 134.22499752924082 150.07910776340287 H 0.0 **** 0.06
32906 C 61.17241487667883 212.49174514353 106.80235173354558 C 0.0 **** -0.24
32907 H 61.84678867158962 211.87653845506074 106.20665862101023 H 0.0 **** 0.06
32908 H 61.289249642984004 213.53796374250535 106.5166668258093 H 0.0 **** 0.06
32909 H 61.41079334579874 212.37485525076772 107.85885966716128 H 0.0 **** 0.06
32910 H 60.1430281565641 212.1795231487472 106.62490884026201 H 0.0 **** 0.06
32911 C 240.97103851064043 58.70140242011993 41.30931858125656 C 0.0 **** -0.24
32912 H 241.69255642371934 59.455048923054136 41.623882427109066 H 0.0 **** 0.06
32913 H 241.32702201315385 57.71393451138803 41.60297730108245 H 0.0 **** 0.06
32914 H 240.85458308160364 58.73844290487446 40.22650941162293 H 0.0 **** 0.06
32915 H 240.01029077829244 58.897599104672594 41.7851580745228 H 0.0 **** 0.06
32916 C 237.20769278352267 55.38159681560478 242.45137172661714 C 0.0 **** -0.24
32917 H 236.13330373419572 55.53619787200199 242.55054961016418 H 0.0 **** 0.06
32918 H 237.56066832406685 55.85387117413376 241.5346761578631 H 0.0 **** 0.06
32919 H 237.4195523026851 54.312987516924096 242.41451686791544 H 0.0 **** 0.06
32920 H 237.71829013893887 55.82343481461962 243.30771926331477 H 0.0 **** 0.06
32921 C 92.00675089380422 33.5191882983884 145.3258988076071 C 0.0 **** -0.24
32922 H 92.83277565679049 32.808168379990136 145.3370940989044 H 0.0 **** 0.06
32923 H 92.3984897322481 34.531963105886874 145.4273012433269 H 0.0 **** 0.06
32924 H 91.33257098968852 33.30407312574755 146.15448644999472 H 0.0 **** 0.06
32925 H 91.46465810576171 33.43097259241159 144.38417168616397 H 0.0 **** 0.06
32926 C 210.06285694844908 64.91119256257048 63.3294496259991 C 0.0 **** -0.24
32927 H 209.5703556349975 65.8807625423982 63.403861184802025 H 0.0 **** 0.06
32928 H 211.13613856756956 65.03743725252235 63.472985046655765 H 0.0 **** 0.06
32929 H 209.87564991559404 64.48365973217949 62.34416500729952 H 0.0 **** 0.06
32930 H 209.66965380455486 64.24437925441475 64.09594675955029 H 0.0 **** 0.06
32931 C 32.36516843611568 25.523065891921803 183.64511633017628 C 0.0 **** -0.24
32932 H 32.37873596091961 25.788613830442912 184.70260098356516 H 0.0 **** 0.06
32933 H 31.615149125241743 24.749034966571685 183.475170007317 H 0.0 **** 0.06
32934 H 33.34609744137694 25.148752756481883 183.35204205031488 H 0.0 **** 0.06
32935 H 32.11896250742299 26.40372111357972 183.05250382349772 H 0.0 **** 0.06
32936 C 83.7642317066259 114.27868965437537 128.76566232862208 C 0.0 **** -0.24
32937 H 84.67800010511354 114.06026893595086 129.31930326227354 H 0.0 **** 0.06
32938 H 83.26757837205167 115.14090984925221 129.21077396734637 H 0.0 **** 0.06
32939 H 83.10061541675327 113.41572308597407 128.80555815462102 H 0.0 **** 0.06
32940 H 84.01371971936845 114.49813718355486 127.726990535624 H 0.0 **** 0.06
32941 C 22.480214628778953 38.81704672995832 212.45044783778152 C 0.0 **** -0.24
32942 H 22.241527625981263 38.66421778362667 213.50384112381144 H 0.0 **** 0.06
32943 H 21.67606440510545 39.378179734664656 211.9736651355761 H 0.0 **** 0.06
32944 H 22.589558772290587 37.85008355670723 211.95955920745845 H 0.0 **** 0.06
32945 H 23.41298241154246 39.37503647333705 212.36673235633603 H 0.0 **** 0.06
32946 C 231.04151530736706 14.488427698010028 1.8442347220071156 C 0.0 **** -0.24
32947 H 232.12521968939495 14.482252465838457 1.9535426877326927 H 0.0 **** 0.06
32948 H 230.670590636074 15.506680600378871 1.9600340375381506 H 0.0 **** 0.06
32949 H 230.59574923256162 13.850504992746309 2.607047144686362 H 0.0 **** 0.06
32950 H 230.77331552089743 14.113529798155682 0.8561122520139861 H 0.0 **** 0.06
32951 C 82.47604257355306 164.5743134207833 22.474832222410953 C 0.0 **** -0.24
32952 H 81.99695229078921 165.19661348433277 21.719785409940584 H 0.0 **** 0.06
32953 H 81.72133345994638 164.18795865905906 23.160350076069662 H 0.0 **** 0.06
32954 H 83.20031841286888 165.17034449544815 23.031468594703014 H 0.0 **** 0.06
32955 H 82.98664086319152 163.74213960649334 21.989917074109243 H 0.0 **** 0.06
32956 C 18.860980568770202 66.18322909402599 224.92578124412003 C 0.0 **** -0.24
32957 H 19.83652756746008 65.91530921539311 224.51979532942207 H 0.0 **** 0.06
32958 H 18.91580064336219 66.2150245654662 226.01334060516785 H 0.0 **** 0.06
32959 H 18.12401957869585 65.44087567547245 224.61995046326018 H 0.0 **** 0.06
32960 H 18.56737821927433 67.16259726004805 224.54776507205133 H 0.0 **** 0.06
32961 C 196.5757648425105 244.82096471031548 156.14596879154962 C 0.0 **** -0.24
32962 H 195.99372006207287 243.90070240416915 156.18096477182021 H 0.0 **** 0.06
32963 H 197.5071748494618 244.6411530369288 155.609123627932 H 0.0 **** 0.06
32964 H 196.7997341846077 245.1475733289908 157.16231230114082 H 0.0 **** 0.06
32965 H 196.00273282496192 245.59378429156095 155.63455529781015 H 0.0 **** 0.06
32966 C 162.31194206394912 238.60774145566296 97.11624955467991 C 0.0 **** -0.24
32967 H 162.82285997320798 239.42479247204523 96.60790706663232 H 0.0 **** 0.06
32968 H 161.25581505688083 238.85368992402005 97.22819002123461 H 0.0 **** 0.06
32969 H 162.75695684681702 238.45865076540477 98.10046822267887 H 0.0 **** 0.06
32970 H 162.41283526979188 237.6947398648315 96.53035347624956 H 0.0 **** 0.06
32971 C 109.88158583699766 212.18776448602537 40.642519726686174 C 0.0 **** -0.24
32972 H 110.42131396172041 211.56116391758005 41.351805168186814 H 0.0 **** 0.06
32973 H 109.3787083403048 212.99334154518436 41.17797878072403 H 0.0 **** 0.06
32974 H 109.14186734110032 211.5850370753231 40.1150391203295 H 0.0 **** 0.06
32975 H 110.58371587080867 212.61177253759612 39.92463174296637 H 0.0 **** 0.06
32976 C 228.31676329947317 227.00063490323126 201.48700190997855 C 0.0 **** -0.24
32977 H 228.73733888437818 227.459365388464 200.59234885731308 H 0.0 **** 0.06
32978 H 227.62894310056606 227.6999039550913 201.9639303638205 H 0.0 **** 0.06
32979 H 229.1208417439761 226.75097151670434 202.17998721090856 H 0.0 **** 0.06
32980 H 227.77923849098318 226.09301439172614 201.2116391300063 H 0.0 **** 0.06
32981 C 189.53655606529105 55.27414454431411 40.16322911362768 C 0.0 **** -0.24
32982 H 189.63765634211737 54.22929410091078 40.4568255275893 H 0.0 **** 0.06
32983 H 188.84413939671845 55.35090385080588 39.324491525387714 H 0.0 **** 0.06
32984 H 190.51118402559646 55.66366154317859 39.86675410718075 H 0.0 **** 0.06
32985 H 189.15546949456044 55.85278746983539 41.004633866745365 H 0.0 **** 0.06
32986 C 42.21282460556489 242.20972224942784 76.00861973468812 C 0.0 **** -0.24
32987 H 42.722096397438705 243.07192947843203 76.44027065249239 H 0.0 **** 0.06
32988 H 41.35749299126188 242.5493376393926 75.4246584483353 H 0.0 **** 0.06
32989 H 41.87118325056265 241.5528715883322 76.80736433952305 H 0.0 **** 0.06
32990 H 42.90308297978949 241.66745878995374 75.36183206197623 H 0.0 **** 0.06
32991 C 154.6415093857016 22.411697875326666 24.937733135555888 C 0.0 **** -0.24
32992 H 154.4082269393582 23.46735642855421 25.078686653182743 H 0.0 **** 0.06
32993 H 153.82424288160962 21.804273484841417 25.327159180474837 H 0.0 **** 0.06
32994 H 155.56085134543696 22.169643726252104 25.47080978816723 H 0.0 **** 0.06
32995 H 154.7733010270322 22.207747276138292 23.87510634980758 H 0.0 **** 0.06
32996 C 58.5071182045956 72.23841328247178 192.04998562761705 C 0.0 **** -0.24
32997 H 58.53082415444973 73.32815702289722 192.01687689944737 H 0.0 **** 0.06
32998 H 58.42078671274763 71.90941516022744 193.08595507028548 H 0.0 **** 0.06
32999 H 59.424682360558336 71.84109210253732 191.6179341808035 H 0.0 **** 0.06
33000 H 57.65006475893557 71.87643364055955 191.48190403051248 H 0.0 **** 0.06
33001 C 95.26869677988327 204.9493742181282 83.67254696869665 C 0.0 **** -0.24
33002 H 96.24215192625562 204.5911938893664 83.33858216112466 H 0.0 **** 0.06
33003 H 94.5810614957991 204.9752769335649 82.8263227967814 H 0.0 **** 0.06
33004 H 95.3737161714202 205.95233850630794 84.08707699161127 H 0.0 **** 0.06
33005 H 94.87895690911142 204.27956954742163 84.43808997243363 H 0.0 **** 0.06
33006 C 224.95161160138076 157.80035497936564 135.13068400179483 C 0.0 **** -0.24
33007 H 224.60438241523207 157.08397923440617 135.8760525451276 H 0.0 **** 0.06
33008 H 224.75385919010637 157.40991930724834 134.1321297748138 H 0.0 **** 0.06
33009 H 226.0220806292182 157.96242007403413 135.25269844519832 H 0.0 **** 0.06
33010 H 224.42331107797338 158.7450897074586 135.26289757644938 H 0.0 **** 0.06
33011 C 128.91646825261708 110.8537916371503 159.18626383851065 C 0.0 **** -0.24
33012 H 129.46871515430516 110.50092989664071 160.05729513617047 H 0.0 **** 0.06
33013 H 129.03819754031943 111.93264089249212 159.09164972879626 H 0.0 **** 0.06
33014 H 127.85926877837673 110.6149537754107 159.30569300178206 H 0.0 **** 0.06
33015 H 129.30139684674342 110.36424938353784 158.2910236808783 H 0.0 **** 0.06
33016 C 31.2269782842873 8.4626749677833 80.44094051731969 C 0.0 **** -0.24
33017 H 31.362796001824023 7.774418592135007 79.60724676711155 H 0.0 **** 0.06
33018 H 30.266737927254297 8.268886052031775 80.91884101005485 H 0.0 **** 0.06
33019 H 31.249431081969192 9.48874729562391 80.07275438690044 H 0.0 **** 0.06
33020 H 32.0298830074143 8.318997516607908 81.16498152348026 H 0.0 **** 0.06
33021 C 185.36036367322265 134.73414266251308 229.8563396876731 C 0.0 **** -0.24
33022 H 184.48141810741168 135.3741954676688 229.93226509047082 H 0.0 **** 0.06
33023 H 185.21631805056325 133.84384500603122 230.46965732518433 H 0.0 **** 0.06
33024 H 186.23706189221866 135.27901937699158 230.2076489185942 H 0.0 **** 0.06
33025 H 185.50814390773914 134.44008606670144 228.8173549491762 H 0.0 **** 0.06
33026 C 25.641551551047684 48.47083746878954 22.654640171005298 C 0.0 **** -0.24
33027 H 26.09725867946949 49.28089593165478 22.085481259972624 H 0.0 **** 0.06
33028 H 24.70108307073795 48.81596411896393 23.085856144665485 H 0.0 **** 0.06
33029 H 26.316512283388732 48.16358088552957 23.453163161389654 H 0.0 **** 0.06
33030 H 25.44958435277468 47.62581639037401 21.99470947426815 H 0.0 **** 0.06
33031 C 49.35645453014078 130.0431713197194 6.054498257899496 C 0.0 **** -0.24
33032 H 48.74823513927373 130.15828553576773 5.157380953469755 H 0.0 **** 0.06
33033 H 48.767970279564096 129.5569511834851 6.8325810525482495 H 0.0 **** 0.06
33034 H 49.6780996591977 131.025516101516 6.403378939309476 H 0.0 **** 0.06
33035 H 50.23069212238714 129.43521465380462 5.8258984442144595 H 0.0 **** 0.06
33036 C 26.0839257825551 37.066792865301636 118.1171818177595 C 0.0 **** -0.24
33037 H 26.647891310036954 37.88667398146856 118.56311725942257 H 0.0 **** 0.06
33038 H 25.058590218932665 37.38963196079514 117.93284657092889 H 0.0 **** 0.06
33039 H 26.080645623254014 36.216629225954264 118.79843550339129 H 0.0 **** 0.06
33040 H 26.548435154972907 36.77644928300134 117.17536856331105 H 0.0 **** 0.06
33041 C 195.32885884711578 46.51370917129569 50.36273028128855 C 0.0 **** -0.24
33042 H 195.73546324554988 46.58252925521944 51.37083405128422 H 0.0 **** 0.06
33043 H 194.3300689331185 46.07796002095304 50.402817238061886 H 0.0 **** 0.06
33044 H 195.97648549777733 45.88367127549111 49.75224805423713 H 0.0 **** 0.06
33045 H 195.27333759987886 47.50962760267552 49.9240761682303 H 0.0 **** 0.06
33046 C 125.88935230790969 11.225059808909705 151.18838736871976 C 0.0 **** -0.24
33047 H 125.52261826627978 10.654202369974826 150.3354292839951 H 0.0 **** 0.06
33048 H 125.07413442961021 11.386533854964455 151.89361819011881 H 0.0 **** 0.06
33049 H 126.27019771575999 12.186944019522556 150.84451949626 H 0.0 **** 0.06
33050 H 126.69020545940572 10.671139641436113 151.6782733224151 H 0.0 **** 0.06
33051 C 187.73901428138595 116.6225854997326 218.99030996853196 C 0.0 **** -0.24
33052 H 188.57331527181964 117.26153819506999 218.7000034333892 H 0.0 **** 0.06
33053 H 187.7461290004419 115.71726899021019 218.38313538949527 H 0.0 **** 0.06
33054 H 186.80151448050597 117.15643506717882 218.83689443716108 H 0.0 **** 0.06
33055 H 187.83710397669216 116.35497364695087 220.04218727739422 H 0.0 **** 0.06
33056 C 17.172196111823283 136.7882276611975 165.0636868496834 C 0.0 **** -0.24
33057 H 18.03359890365104 137.05576152980274 165.67546003153174 H 0.0 **** 0.06
33058 H 17.345637152553564 135.81781145543943 164.59710012078824 H 0.0 **** 0.06
33059 H 17.02783253289232 137.54256498102984 164.29033251143866 H 0.0 **** 0.06
33060 H 16.282319597847305 136.737112847698 165.691133768193 H 0.0 **** 0.06
33061 C 46.555468936312906 223.06263851825636 207.9746873683161 C 0.0 **** -0.24
33062 H 47.1342647750233 222.16130251442172 207.7700062356957 H 0.0 **** 0.06
33063 H 45.72261418598649 222.81641779473358 208.6348683350012 H 0.0 **** 0.06
33064 H 46.1711002527874 223.46706106690564 207.0388622370951 H 0.0 **** 0.06
33065 H 47.194007496091814 223.80231497427243 208.4564381397644 H 0.0 **** 0.06
33066 C 222.10392557124996 116.21124313769533 188.24117703202424 C 0.0 **** -0.24
33067 H 222.28808146778945 115.15657897160315 188.45045839846443 H 0.0 **** 0.06
33068 H 222.6325363678432 116.82346550429904 188.97207987928502 H 0.0 **** 0.06
33069 H 221.03451580238502 116.41183391424639 188.3028507827964 H 0.0 **** 0.06
33070 H 222.46134072402927 116.45022281305845 187.23971825144145 H 0.0 **** 0.06
33071 C 85.0005912662889 153.4714511217903 186.39465432214536 C 0.0 **** -0.24
33072 H 85.94201551266949 153.08868748717688 186.78917423370973 H 0.0 **** 0.06
33073 H 85.07240677123414 153.56208260262108 185.3110099927447 H 0.0 **** 0.06
33074 H 84.79626792645095 154.4493942552335 186.82854918600398 H 0.0 **** 0.06
33075 H 84.19425258990236 152.7844823515482 186.65000586225443 H 0.0 **** 0.06
33076 C 87.42759708666202 32.746306393039276 108.95630171739225 C 0.0 **** -0.24
33077 H 87.54505760418121 33.04691215024779 107.91519424251248 H 0.0 **** 0.06
33078 H 88.1162347577581 33.31764860743357 109.57884392650189 H 0.0 **** 0.06
33079 H 87.64667957259365 31.682892155658166 109.05291224428368 H 0.0 **** 0.06
33080 H 86.40353955952628 32.93676602191941 109.27547701038665 H 0.0 **** 0.06
33081 C 8.984009639866514 41.55754704203612 28.07780070895943 C 0.0 **** -0.24
33082 H 8.446258830055541 40.857751771029086 27.437848197087007 H 0.0 **** 0.06
33083 H 8.999063928200172 41.17717611180187 29.10026435852437 H 0.0 **** 0.06
33084 H 8.483811372343766 42.525719662217554 28.05822934813179 H 0.0 **** 0.06
33085 H 10.005993072357555 41.66941464466676 27.71689897219136 H 0.0 **** 0.06
33086 C 175.68730410691103 102.48506863496783 18.318569091391268 C 0.0 **** -0.24
33087 H 175.09295010894982 103.3650775058598 18.0700267521608 H 0.0 **** 0.06
33088 H 175.47843698716642 102.18455927002478 19.345331584671143 H 0.0 **** 0.06
33089 H 176.74637033879588 102.7219624217116 18.21609655516447 H 0.0 **** 0.06
33090 H 175.42975501936996 101.67073200900782 17.64189051995369 H 0.0 **** 0.06
33091 C 186.34054171385998 226.7113027775307 232.9721871648486 C 0.0 **** -0.24
33092 H 185.25470427144955 226.79940621050153 232.96139868433966 H 0.0 **** 0.06
33093 H 186.77077844163054 227.57871233573303 233.47359876562808 H 0.0 **** 0.06
33094 H 186.7111567521507 226.66121067130024 231.94830638846165 H 0.0 **** 0.06
33095 H 186.62568232817497 225.8036550901644 233.50531293510537 H 0.0 **** 0.06
33096 C 208.0075882963013 223.90505435376232 145.69567058106512 C 0.0 **** -0.24
33097 H 207.40219188751047 223.18507128027318 145.14505171944958 H 0.0 **** 0.06
33098 H 207.6136025411685 224.01373793755562 146.70606291611892 H 0.0 **** 0.06
33099 H 207.9778569199803 224.8687510819646 145.18734762344044 H 0.0 **** 0.06
33100 H 209.03824016545875 223.55203553981923 145.7437228556929 H 0.0 **** 0.06
33101 C 49.83257341828977 117.31886819031831 30.889979043473133 C 0.0 **** -0.24
33102 H 49.15277187054099 118.10294321433489 30.554162431656536 H 0.0 **** 0.06
33103 H 50.56175121848028 117.74176655398523 31.58009589309451 H 0.0 **** 0.06
33104 H 50.34810934733645 116.89229574460703 30.02941688680974 H 0.0 **** 0.06
33105 H 49.2627295633892 116.53818163654515 31.394977128311965 H 0.0 **** 0.06
33106 C 128.80578886118832 84.00746860006123 37.301623248045146 C 0.0 **** -0.24
33107 H 128.62910955998677 84.79321921376112 38.035970553165654 H 0.0 **** 0.06
33108 H 129.87861653095047 83.89518854882826 37.141712147055244 H 0.0 **** 0.06
33109 H 128.3239131689008 84.27370178442365 36.36189868258538 H 0.0 **** 0.06
33110 H 128.39331650115437 83.06738826650468 37.66852935543004 H 0.0 **** 0.06
33111 C 153.88807919470605 132.4501166395487 77.87297627497745 C 0.0 **** -0.24
33112 H 152.8209182185513 132.34846204540247 77.67746065769472 H 0.0 **** 0.06
33113 H 154.40975243939099 131.56454637468659 77.51022167539142 H 0.0 **** 0.06
33114 H 154.05241560624276 132.55429761693188 78.9454786931721 H 0.0 **** 0.06
33115 H 154.26987432491865 133.33229546704183 77.3596590649891 H 0.0 **** 0.06
33116 C 6.248387136834893 3.190128469027286 221.59930366052103 C 0.0 **** -0.24
33117 H 7.028650089839715 2.5830150088221444 222.05993752168575 H 0.0 **** 0.06
33118 H 5.415462046730454 2.550231402318815 221.30752444617144 H 0.0 **** 0.06
33119 H 6.6496475581354275 3.6905835427359364 220.7180560436953 H 0.0 **** 0.06
33120 H 5.900254354818358 3.9364583923861574 222.31409089501787 H 0.0 **** 0.06
33121 C 21.18600863697803 168.6359911057559 119.83849769715667 C 0.0 **** -0.24
33122 H 21.893575255033795 169.32770660127227 119.38290389831701 H 0.0 **** 0.06
33123 H 20.699791592093504 168.04875836583136 119.05971386316949 H 0.0 **** 0.06
33124 H 20.43515462215649 169.1981067072411 120.39332457379652 H 0.0 **** 0.06
33125 H 21.717108475950027 167.96983332259114 120.51855897388884 H 0.0 **** 0.06
33126 C 80.22747680346885 58.03382680813792 131.32837824959486 C 0.0 **** -0.24
33127 H 79.17384251896507 57.826716111478675 131.51658166717064 H 0.0 **** 0.06
33128 H 80.31789669440874 58.93525147200734 130.7229499881233 H 0.0 **** 0.06
33129 H 80.67215886799232 57.19193989636145 130.79676008929212 H 0.0 **** 0.06
33130 H 80.74457741380022 58.17796539907306 132.27761563051624 H 0.0 **** 0.06
33131 C 16.58552739429038 99.41635220605801 233.40836658766128 C 0.0 **** -0.24
33132 H 17.095014357392387 99.82659737512827 232.5355186509066 H 0.0 **** 0.06
33133 H 15.552643807369265 99.18518122511071 233.1501398821143 H 0.0 **** 0.06
33134 H 16.60385560904416 100.1484466266231 234.21589331034446 H 0.0 **** 0.06
33135 H 17.092425962346226 98.50708891774624 233.73017658619173 H 0.0 **** 0.06
33136 C 144.42015614568473 166.2273999378619 117.87219369914914 C 0.0 **** -0.24
33137 H 144.18489511190486 166.20636669529074 116.80776172640924 H 0.0 **** 0.06
33138 H 145.4245366084078 165.83302788824892 118.02954728523522 H 0.0 **** 0.06
33139 H 143.69951086655132 165.61580436155222 118.41500287460252 H 0.0 **** 0.06
33140 H 144.37176871468873 167.25443192710284 118.23363597044107 H 0.0 **** 0.06
33141 C 129.1708438196791 152.22360011378674 233.18325964274527 C 0.0 **** -0.24
33142 H 129.4900035189468 152.13181112934205 234.22190320391428 H 0.0 **** 0.06
33143 H 128.40747628232634 152.9977895829241 233.1050724384384 H 0.0 **** 0.06
33144 H 128.76129809927005 151.2725881537096 232.84430815154428 H 0.0 **** 0.06
33145 H 130.0264634251363 152.49270423951802 232.56326316125012 H 0.0 **** 0.06
33146 C 119.32847916890998 165.88707711664927 158.82033620906955 C 0.0 **** -0.24
33147 H 119.24859726415914 165.7776443598294 157.73854513533877 H 0.0 **** 0.06
33148 H 119.59542565272469 164.9278178942005 159.26382114469376 H 0.0 **** 0.06
33149 H 118.37262231832398 166.22075336492748 159.22325357552995 H 0.0 **** 0.06
33150 H 120.09866320007188 166.62305384344396 159.05426226377259 H 0.0 **** 0.06
33151 C 149.19335422679686 219.4098753303235 199.35037875591345 C 0.0 **** -0.24
33152 H 148.88000301789896 220.42643883711582 199.11384710878747 H 0.0 **** 0.06
33153 H 148.85500792351385 218.7339463467426 198.56425702910045 H 0.0 **** 0.06
33154 H 148.75795029635762 219.1076979346387 200.30214437555674 H 0.0 **** 0.06
33155 H 150.28082226423817 219.37213290069127 199.4189524502311 H 0.0 **** 0.06
33156 C 48.21779023622827 157.64868689108036 153.86757254865637 C 0.0 **** -0.24
33157 H 47.95910143166297 158.30686224585838 154.69737425960056 H 0.0 **** 0.06
33158 H 48.488829331161355 156.66620016774792 154.2537424779337 H 0.0 **** 0.06
33159 H 49.06199450303858 158.06938290653875 153.3200183495506 H 0.0 **** 0.06
33160 H 47.362953553826785 157.55366681795306 153.19872279590808 H 0.0 **** 0.06
33161 C 82.80730429539528 37.58252753542804 202.33492733861146 C 0.0 **** -0.24
33162 H 82.38003659003047 36.80536809236777 201.69954784736467 H 0.0 **** 0.06
33163 H 83.57430089066443 37.14569701135872 202.9751147278497 H 0.0 **** 0.06
33164 H 82.02199317647359 38.01880250844428 202.9523673480168 H 0.0 **** 0.06
33165 H 83.25230931217988 38.35766035076331 201.71067960974537 H 0.0 **** 0.06
33166 C 128.56948676657646 15.391454669852948 72.02994092956948 C 0.0 **** -0.24
33167 H 128.28927598850146 16.36078978788106 72.4417672451801 H 0.0 **** 0.06
33168 H 129.6495719187797 15.357813511694872 71.88701470412266 H 0.0 **** 0.06
33169 H 128.0709928993695 15.246770517594598 71.0711902139731 H 0.0 **** 0.06
33170 H 128.26878088240042 14.603319201625794 72.7192594413948 H 0.0 **** 0.06
33171 C 73.98964198103513 140.2977051759458 46.47742272618645 C 0.0 **** -0.24
33172 H 74.54049494323647 140.3696314420462 47.41527409824005 H 0.0 **** 0.06
33173 H 74.24364815919137 141.1446161439974 45.84061173778785 H 0.0 **** 0.06
33174 H 72.91918060725777 140.3048887555992 46.68384805614869 H 0.0 **** 0.06
33175 H 74.25478873253084 139.36945739941032 45.97086982779744 H 0.0 **** 0.06
33176 C 155.16988968632796 185.815195907087 10.18123711482292 C 0.0 **** -0.24
33177 H 154.67476839272655 185.12629806840613 10.865982502829127 H 0.0 **** 0.06
33178 H 155.899029695789 186.41003511145203 10.730117542076812 H 0.0 **** 0.06
33179 H 154.42820969119003 186.4740880718481 9.73038629341778 H 0.0 **** 0.06
33180 H 155.67620076563128 185.24861703084525 9.39952550542506 H 0.0 **** 0.06
33181 C 139.34603375475442 62.90863975154605 57.58595566835882 C 0.0 **** -0.24
33182 H 138.80158871538606 63.81625731891049 57.84560064661372 H 0.0 **** 0.06
33183 H 139.92630891991615 62.57428160630229 58.44665941783862 H 0.0 **** 0.06
33184 H 140.01695188504985 63.11275101651003 56.751794402003895 H 0.0 **** 0.06
33185 H 138.63796871836573 62.1302184686098 57.30017115512845 H 0.0 **** 0.06
33186 C 220.63836740234657 111.23384683472867 161.42584094192327 C 0.0 **** -0.24
33187 H 219.76686286118365 111.3107601314284 162.0765611245475 H 0.0 **** 0.06
33188 H 221.12697968311642 112.20551490916122 161.35807107296924 H 0.0 **** 0.06
33189 H 220.3212326244157 110.91589790141336 160.4325541861191 H 0.0 **** 0.06
33190 H 221.33416140186162 110.50298468247459 161.8360077108584 H 0.0 **** 0.06
33191 C 153.50842984318365 172.5517373190641 186.7223827535616 C 0.0 **** -0.24
33192 H 154.25981779611215 173.34109754947343 186.7690749043604 H 0.0 **** 0.06
33193 H 152.85386157041935 172.72494538477258 185.8678560325592 H 0.0 **** 0.06
33194 H 152.91980134777054 172.5560153808202 187.63929428316442 H 0.0 **** 0.06
33195 H 154.00233782083606 171.58648543607586 186.61187357396983 H 0.0 **** 0.06
33196 C 56.87588612528401 227.76518225004426 100.23113846686906 C 0.0 **** -0.24
33197 H 56.29306961900386 227.62018585918955 101.14034610456574 H 0.0 **** 0.06
33198 H 57.83405483683535 227.25355207545678 100.32957051308378 H 0.0 **** 0.06
33199 H 57.04652611346202 228.830046265093 100.07539449356338 H 0.0 **** 0.06
33200 H 56.33068806112419 227.35513731369343 99.3815016139346 H 0.0 **** 0.06
33201 C 21.5205191512962 50.93029285564809 83.8522279149532 C 0.0 **** -0.24
33202 H 21.04264880463269 50.586863070142655 84.76978798623469 H 0.0 **** 0.06
33203 H 22.202613325454593 50.16125590357099 83.48854222496303 H 0.0 **** 0.06
33204 H 22.079071850528848 51.844935455769686 84.0533258362324 H 0.0 **** 0.06
33205 H 20.759833407115806 51.12819519855071 83.09804463769075 H 0.0 **** 0.06
33206 C 68.89958831823131 63.52439572185591 225.0668649340846 C 0.0 **** -0.24
33207 H 67.92851297500238 63.45104418178457 224.5771254120257 H 0.0 **** 0.06
33208 H 69.09890992857277 62.60573111165445 225.6180906528512 H 0.0 **** 0.06
33209 H 68.89490670619875 64.36885279440023 225.75686197402567 H 0.0 **** 0.06
33210 H 69.67550202213388 63.67360360362173 224.31528492394833 H 0.0 **** 0.06
33211 C 145.32789225076192 19.721565542574155 49.22760005344689 C 0.0 **** -0.24
33212 H 145.30851254481132 20.746445565493346 48.85616507842377 H 0.0 **** 0.06
33213 H 145.7014129833023 19.05969028503185 48.445789985789645 H 0.0 **** 0.06
33214 H 144.3190480279429 19.41847873930527 49.510048819616415 H 0.0 **** 0.06
33215 H 145.98233181870273 19.662313781930564 50.09769870149515 H 0.0 **** 0.06
33216 C 157.26397774039438 36.46794304253942 106.1280839669574 C 0.0 **** -0.24
33217 H 156.26078691779745 36.824680358354414 105.89567866202478 H 0.0 **** 0.06
33218 H 157.29675077288655 35.382387148343 106.02522038112832 H 0.0 **** 0.06
33219 H 157.51875505784483 36.74362049187965 107.1518515383932 H 0.0 **** 0.06
33220 H 157.97887617874724 36.919730794615376 105.44085721192394 H 0.0 **** 0.06
33221 C 199.35679987022286 149.68295127593208 76.25401246469113 C 0.0 **** -0.24
33222 H 200.42673188163195 149.86690666197495 76.35176969679566 H 0.0 **** 0.06
33223 H 198.8182181219873 150.27913895642308 76.99005085429599 H 0.0 **** 0.06
33224 H 199.1532568084184 148.62601856739568 76.42118011971397 H 0.0 **** 0.06
33225 H 199.03127765065966 149.9619316812089 75.25205948015545 H 0.0 **** 0.06
33226 C 3.653982829799645 120.51018720442639 234.12618306144043 C 0.0 **** -0.24
33227 H 3.9955762005847077 119.71173973389111 234.78530382439897 H 0.0 **** 0.06
33228 H 3.364540629476494 121.37458698726505 234.72439439880023 H 0.0 **** 0.06
33229 H 2.796977732823393 120.16288287401915 233.5492389278081 H 0.0 **** 0.06
33230 H 4.460142173318786 120.79070808562787 233.44816262000097 H 0.0 **** 0.06
33231 C 248.95735471888702 0.9042937625717968 82.01199550873284 C 0.0 **** -0.24
33232 H 249.0315884306243 0.8106195528569629 83.09594342191602 H 0.0 **** 0.06
33233 H 248.04194257438934 0.42185809488447035 81.6685526359108 H 0.0 **** 0.06
33234 H 249.8176988889954 0.4239581716761336 81.54694692074 H 0.0 **** 0.06
33235 H 248.93738074571417 1.9587302063047645 81.73942188513786 H 0.0 **** 0.06
33236 C 57.27282552894775 220.06233283724345 153.71596987787572 C 0.0 **** -0.24
33237 H 57.44801017023812 219.31993679243283 152.9364597518683 H 0.0 **** 0.06
33238 H 57.87086494917784 219.8158808154198 154.59303761603257 H 0.0 **** 0.06
33239 H 56.21582183669662 220.06325972129252 153.98445249660952 H 0.0 **** 0.06
33240 H 57.55529844379757 221.04891762799497 153.34780676490143 H 0.0 **** 0.06
33241 C 158.97147097445335 174.66489187238275 156.27643748509504 C 0.0 **** -0.24
33242 H 158.8992809026994 174.93091314822675 155.22230189874267 H 0.0 **** 0.06
33243 H 158.320672783231 173.8151218442778 156.48145011531986 H 0.0 **** 0.06
33244 H 158.6653716868709 175.51385086207506 156.88747874889452 H 0.0 **** 0.06
33245 H 160.00277003492369 174.39899452755677 156.51372095078617 H 0.0 **** 0.06
33246 C 77.00553554449445 94.50344706912506 77.83531086172758 C 0.0 **** -0.24
33247 H 76.03783829869317 94.8161380978687 77.4428736932349 H 0.0 **** 0.06
33248 H 77.10090270214678 94.83272290365676 78.87087260138631 H 0.0 **** 0.06
33249 H 77.80124147169133 94.94958508243778 77.23762989977405 H 0.0 **** 0.06
33250 H 77.08232737420894 93.41776648552354 77.79017506597575 H 0.0 **** 0.06
33251 C 19.094052020872056 61.6751721599486 100.19815218867723 C 0.0 **** -0.24
33252 H 19.259713395967538 60.59859454102505 100.22326191712597 H 0.0 **** 0.06
33253 H 18.599210175223675 61.98844144100761 101.11775671237328 H 0.0 **** 0.06
33254 H 18.46722016853758 61.92624389966821 99.34283390064738 H 0.0 **** 0.06
33255 H 20.052400754184163 62.187673750510925 100.10944253627815 H 0.0 **** 0.06
33256 C 211.00859596543492 13.41890546349741 192.46456637442515 C 0.0 **** -0.24
33257 H 212.0876197403278 13.533535435598651 192.57170292109998 H 0.0 **** 0.06
33258 H 210.6291363593468 12.792952039034077 193.27215369840278 H 0.0 **** 0.06
33259 H 210.78778168801358 12.949201341570785 191.5065289778909 H 0.0 **** 0.06
33260 H 210.53236282306523 14.398402254839866 192.50844802495075 H 0.0 **** 0.06
33261 C 180.24829165764461 63.720258048017115 115.83758684188649 C 0.0 **** -0.24
33262 H 179.27206575012366 63.99501718699278 115.43867963770217 H 0.0 **** 0.06
33263 H 180.96935665531655 64.50497912858759 115.60737244200647 H 0.0 **** 0.06
33264 H 180.57381551348612 62.78284136365929 115.38545217352245 H 0.0 **** 0.06
33265 H 180.17620565643833 63.59710204512544 116.91792788552661 H 0.0 **** 0.06
33266 C 163.79805809597943 139.31901065264776 149.8395136624716 C 0.0 **** -0.24
33267 H 164.88234991879068 139.32851086539702 149.94838768792962 H 0.0 **** 0.06
33268 H 163.33286587053325 139.36339339793642 150.82403330675353 H 0.0 **** 0.06
33269 H 163.4923412888251 138.40269333163383 149.33437568957288 H 0.0 **** 0.06
33270 H 163.4849664485545 140.18058356253778 149.2497838002154 H 0.0 **** 0.06
33271 C 88.65836867228953 96.65728627500064 165.21630838835438 C 0.0 **** -0.24
33272 H 89.16133429901654 96.66329066343488 164.24928196928835 H 0.0 **** 0.06
33273 H 87.58723980214731 96.80326294089505 165.06884534989922 H 0.0 **** 0.06
33274 H 89.05329654088226 97.46297152001401 165.83587020279822 H 0.0 **** 0.06
33275 H 88.83037420544167 95.70101630685548 165.7099959518609 H 0.0 **** 0.06
33276 C 11.69842066045571 162.4183148039648 74.33085065473935 C 0.0 **** -0.24
33277 H 11.568327796691278 162.36281642484184 73.2500082300752 H 0.0 **** 0.06
33278 H 11.359215031385347 163.39004431820123 74.68830394060734 H 0.0 **** 0.06
33279 H 12.75269620666002 162.28762773802205 74.57683752856926 H 0.0 **** 0.06
33280 H 11.114207843262633 161.63124489946424 74.80854922837165 H 0.0 **** 0.06
33281 C 157.15071073841153 165.39480938525804 246.99614016716413 C 0.0 **** -0.24
33282 H 156.1553460242832 165.5764042667204 246.59343440299284 H 0.0 **** 0.06
33283 H 157.07947321564077 165.2003326362739 248.06698450371528 H 0.0 **** 0.06
33284 H 157.77756444268434 166.27049021632874 246.8271606220344 H 0.0 **** 0.06
33285 H 157.59238210862384 164.5313485518468 246.49834667362944 H 0.0 **** 0.06
33286 C 222.58600143480595 137.38259868241994 177.0449032499958 C 0.0 **** -0.24
33287 H 222.50661827235743 136.3990599190037 177.50861694297794 H 0.0 **** 0.06
33288 H 222.4137915577123 137.29297028711161 175.97252082098237 H 0.0 **** 0.06
33289 H 223.5831626075974 137.78660057544295 177.2206463528126 H 0.0 **** 0.06
33290 H 221.8417548730718 138.0503273883143 177.47826452480683 H 0.0 **** 0.06
33291 C 135.35264084614505 79.01315448712668 86.99154155710445 C 0.0 **** -0.24
33292 H 135.64240354390253 78.48580676393453 86.08276296730958 H 0.0 **** 0.06
33293 H 135.93449483229625 79.93157190044494 87.07879393763963 H 0.0 **** 0.06
33294 H 135.54463916812387 78.37822997522954 87.85650229497685 H 0.0 **** 0.06
33295 H 134.29137216528324 79.2572071435091 86.94743198866618 H 0.0 **** 0.06
33296 C 10.905624700894961 94.90962747490181 133.7243847176758 C 0.0 **** -0.24
33297 H 10.856794775172872 95.98381372647819 133.89930210445849 H 0.0 **** 0.06
33298 H 11.75029632042741 94.68534390689612 133.07265831081256 H 0.0 **** 0.06
33299 H 9.981325032598107 94.57743977851712 133.2503045139741 H 0.0 **** 0.06
33300 H 11.031294366453167 94.39229234056907 134.67555876250762 H 0.0 **** 0.06
33301 C 119.12947955364189 219.68245457538393 126.71675007470213 C 0.0 **** -0.24
33302 H 120.0500601622415 219.7817079393441 126.14281569830595 H 0.0 **** 0.06
33303 H 119.29269404263422 220.04851688155998 127.73103652361013 H 0.0 **** 0.06
33304 H 118.83400241048128 218.6345631948872 126.75228129219096 H 0.0 **** 0.06
33305 H 118.34139431417393 220.26730188978522 126.24281248418123 H 0.0 **** 0.06
33306 C 14.339782096882146 112.63059112573927 243.7713398646969 C 0.0 **** -0.24
33307 H 14.414779712469993 111.5600259136624 243.96030030223437 H 0.0 **** 0.06
33308 H 14.879553248473343 113.17491360502837 244.54657255015127 H 0.0 **** 0.06
33309 H 13.291516034424177 112.9293417227299 243.78092699947257 H 0.0 **** 0.06
33310 H 14.773278912223617 112.85906508281664 242.79736977415862 H 0.0 **** 0.06
33311 C 171.33307994887798 170.584332215103 117.67768638220508 C 0.0 **** -0.24
33312 H 170.7394153150323 171.27889798114302 118.2718381018936 H 0.0 **** 0.06
33313 H 171.82256884858253 171.12513239178668 116.86734302224227 H 0.0 **** 0.06
33314 H 170.68201759641858 169.8157002986296 117.26038030000299 H 0.0 **** 0.06
33315 H 172.08687271047324 170.11638921959013 118.31051368100816 H 0.0 **** 0.06
33316 C 65.1817201299178 49.72431377956636 183.99728392323468 C 0.0 **** -0.24
33317 H 64.10820389072956 49.8392143414566 183.846787026452 H 0.0 **** 0.06
33318 H 65.37896029892818 48.778068390246716 184.50136878784522 H 0.0 **** 0.06
33319 H 65.55188953515622 50.54665641981248 184.60989862029922 H 0.0 **** 0.06
33320 H 65.68676704052177 49.733901731458076 183.03181188815964 H 0.0 **** 0.06
33321 C 139.04950613603864 77.11341011735917 72.91941292224499 C 0.0 **** -0.24
33322 H 138.2531593168824 77.11742575226648 72.17567292744752 H 0.0 **** 0.06
33323 H 139.89455459570226 77.69556695422861 72.54936683710744 H 0.0 **** 0.06
33324 H 139.36849604282523 76.08853502777268 73.10534582803731 H 0.0 **** 0.06
33325 H 138.68292072298502 77.55455948242249 73.84637729223579 H 0.0 **** 0.06
33326 C 145.46138007496302 155.98059138729408 158.50903868106136 C 0.0 **** -0.24
33327 H 146.12850763420724 155.38200957855142 159.13000423189183 H 0.0 **** 0.06
33328 H 144.6758856095996 156.4105658313523 159.1303743309215 H 0.0 **** 0.06
33329 H 145.01434150087775 155.34669837664666 157.74306235236577 H 0.0 **** 0.06
33330 H 146.02860721939135 156.78001168763615 158.0331551752398 H 0.0 **** 0.06
33331 C 209.09667400260997 8.01207374870441 171.85603832005782 C 0.0 **** -0.24
33332 H 209.44118934112512 8.803469176206562 171.19105183961935 H 0.0 **** 0.06
33333 H 208.51952414881043 7.284244373693667 171.28453501355844 H 0.0 **** 0.06
33334 H 208.46922103031318 8.440283477854763 172.63703752232036 H 0.0 **** 0.06
33335 H 209.9562688027334 7.51908074769122 172.3094611294805 H 0.0 **** 0.06
33336 C 11.48646420427363 183.3010029285167 62.37068561254492 C 0.0 **** -0.24
33337 H 10.755689488749084 182.78038864659874 61.75079314953811 H 0.0 **** 0.06
33338 H 12.167832798438411 183.86446561324308 61.7319977183605 H 0.0 **** 0.06
33339 H 12.05198182875833 182.57404505786292 62.95357465782914 H 0.0 **** 0.06
33340 H 10.970242222468329 183.98541068163877 63.04394816370191 H 0.0 **** 0.06
33341 C 222.1529407744562 11.091996373221264 189.5402338164095 C 0.0 **** -0.24
33342 H 222.87345571772155 11.70258255586458 188.99627950157415 H 0.0 **** 0.06
33343 H 222.2980561594295 10.043250072175027 189.28461247087947 H 0.0 **** 0.06
33344 H 221.14132508319412 11.396423501151475 189.26903204551732 H 0.0 **** 0.06
33345 H 222.2973610495754 11.229500110755254 190.61253838599262 H 0.0 **** 0.06
33346 C 236.18418140178306 63.109659731572236 158.68228085345925 C 0.0 **** -0.24
33347 H 235.48680651429896 62.500186954849795 159.2569840546878 H 0.0 **** 0.06
33348 H 237.08357577465824 63.28648789924975 159.27388388790595 H 0.0 **** 0.06
33349 H 235.71754813238584 64.06261577621535 158.43609043500422 H 0.0 **** 0.06
33350 H 236.45114928377149 62.587068823760035 157.76366914916767 H 0.0 **** 0.06
33351 C 24.53075251339459 127.59651895146513 234.61983293226237 C 0.0 **** -0.24
33352 H 24.665437624292025 128.46765729024804 235.2610719561065 H 0.0 **** 0.06
33353 H 23.618836504297164 127.0731288401534 234.90607853759786 H 0.0 **** 0.06
33354 H 25.384184199847297 126.92780595819607 234.73143426302477 H 0.0 **** 0.06
33355 H 24.455034094667866 127.91880282939778 233.5809121458404 H 0.0 **** 0.06
33356 C 86.36755529434791 238.05260560318004 203.35920736699387 C 0.0 **** -0.24
33357 H 86.87498561788772 237.09705011102653 203.49096751106623 H 0.0 **** 0.06
33358 H 85.43396513855342 237.8960128941926 202.81859686379505 H 0.0 **** 0.06
33359 H 87.00795900889614 238.72815419818454 202.79244309204492 H 0.0 **** 0.06
33360 H 86.15404866150774 238.48739915809267 204.33526322796183 H 0.0 **** 0.06
33361 C 137.0218633920244 144.45456535605885 170.21270403047336 C 0.0 **** -0.24
33362 H 137.5899710470835 145.29807032450125 169.819834288306 H 0.0 **** 0.06
33363 H 137.3996964514221 144.19326309489745 171.2017823329216 H 0.0 **** 0.06
33364 H 137.13152647556007 143.60020536368935 169.54513262920554 H 0.0 **** 0.06
33365 H 135.96896478769423 144.72658863251885 170.28535685462876 H 0.0 **** 0.06
33366 C 244.0036383141474 152.7817835300614 65.5147437141554 C 0.0 **** -0.24
33367 H 244.79006459305606 152.53982441071847 66.22980529445073 H 0.0 **** 0.06
33368 H 244.44115779498804 152.9222493532605 64.52709215064047 H 0.0 **** 0.06
33369 H 243.50024062905393 153.69809075362423 65.8244991342103 H 0.0 **** 0.06
33370 H 243.28183237693582 151.96530005485627 65.48015325287221 H 0.0 **** 0.06
33371 C 140.53011419413423 243.16386421329696 47.27318513838699 C 0.0 **** -0.24
33372 H 139.79895425643247 242.35554329714978 47.273085863751845 H 0.0 **** 0.06
33373 H 141.45727545609756 242.81498237327122 47.728220332629775 H 0.0 **** 0.06
33374 H 140.13903099867176 244.00700171224565 47.842733786193634 H 0.0 **** 0.06
33375 H 140.72462485319116 243.4764657182187 46.2468214210829 H 0.0 **** 0.06
33376 C 33.50607145242921 85.45928862916415 5.924131869956398 C 0.0 **** -0.24
33377 H 32.736605259423044 86.05959869933457 5.4397475632792975 H 0.0 **** 0.06
33378 H 33.04769631499781 84.5786815887169 6.37625581441992 H 0.0 **** 0.06
33379 H 33.99644349254689 86.05121621185472 6.696601651125377 H 0.0 **** 0.06
33380 H 34.24204005352678 85.14584330317501 5.1832480587396645 H 0.0 **** 0.06
33381 C 84.12902268008759 213.5602911588211 174.44778129923964 C 0.0 **** -0.24
33382 H 83.3561073004571 213.04459130769118 173.8779602326537 H 0.0 **** 0.06
33383 H 84.94512272738928 213.84065504664204 173.7816931863426 H 0.0 **** 0.06
33384 H 84.50637123905068 212.8998292912397 175.22764266047548 H 0.0 **** 0.06
33385 H 83.70718691969029 214.45684435832365 174.90297304899144 H 0.0 **** 0.06
33386 C 175.3821232835793 114.703510176511 131.5522535457077 C 0.0 **** -0.24
33387 H 176.23584543416362 114.15223828450064 131.94474602586294 H 0.0 **** 0.06
33388 H 174.46691892180442 114.33488569523382 132.01718746798016 H 0.0 **** 0.06
33389 H 175.32364868425418 114.56241704572932 130.4733272220064 H 0.0 **** 0.06
33390 H 175.50139956660658 115.76395191903876 131.77424013870723 H 0.0 **** 0.06
33391 C 225.49715822410033 229.19366473543954 221.12634034892864 C 0.0 **** -0.24
33392 H 225.7227636946282 228.47366477016902 220.3397834282694 H 0.0 **** 0.06
33393 H 224.41770666251475 229.24971826356096 221.26906001577763 H 0.0 **** 0.06
33394 H 225.87898131721613 230.17414078393227 220.84121859246872 H 0.0 **** 0.06
33395 H 225.97085731961073 228.87566573598332 222.05512147102309 H 0.0 **** 0.06
33396 C 172.66801303657604 56.84760437046873 225.8639204887051 C 0.0 **** -0.24
33397 H 172.33579044691425 57.87529570761845 226.00617105078743 H 0.0 **** 0.06
33398 H 173.35953447559473 56.576039578458165 226.6623284325845 H 0.0 **** 0.06
33399 H 173.17045440587046 56.75814878391722 224.90157807437595 H 0.0 **** 0.06
33400 H 171.8062233476156 56.181273077062315 225.88730210419266 H 0.0 **** 0.06
33401 C 221.6352509731801 158.34923558113823 39.58431184932948 C 0.0 **** -0.24
33402 H 222.2094086942661 158.65988664833552 38.711305322001095 H 0.0 **** 0.06
33403 H 221.4480478445678 159.2134501600594 40.221309270935706 H 0.0 **** 0.06
33404 H 222.19987520448606 157.6019754614567 40.14304199208598 H 0.0 **** 0.06
33405 H 220.6864946088608 157.92174986371745 39.26173026226459 H 0.0 **** 0.06
33406 C 209.9938120288923 3.5465098307400496 131.53012099511486 C 0.0 **** -0.24
33407 H 209.341794448289 3.0436147985179502 132.243782135155 H 0.0 **** 0.06
33408 H 209.97235997302153 4.621095536203043 131.71486392966443 H 0.0 **** 0.06
33409 H 209.64767442010685 3.344577502791438 130.5166281947517 H 0.0 **** 0.06
33410 H 211.01355606747222 3.1785524274369124 131.6468643972808 H 0.0 **** 0.06
33411 C 163.14425312197653 45.76462897955703 192.51685181830354 C 0.0 **** -0.24
33412 H 163.08954616531398 46.464949569207306 193.3495701245596 H 0.0 **** 0.06
33413 H 162.30339025248375 45.07309658358828 192.56777476726728 H 0.0 **** 0.06
33414 H 164.07896014628938 45.20569950095654 192.57424692333385 H 0.0 **** 0.06
33415 H 163.10719671960206 46.31456891994115 191.57660905617257 H 0.0 **** 0.06
33416 C 79.4733518946301 118.20060741667638 158.62579859604546 C 0.0 **** -0.24
33417 H 78.46833066684698 118.02186915409953 158.2431217902457 H 0.0 **** 0.06
33418 H 80.1464130611981 117.42605893718985 158.25659553648822 H 0.0 **** 0.06
33419 H 79.4560057426664 118.17719879527303 159.71622820581936 H 0.0 **** 0.06
33420 H 79.82202913775401 119.17613924378887 158.28874905787177 H 0.0 **** 0.06
33421 C 50.04415320389032 62.93994561471874 7.0893483749651125 C 0.0 **** -0.24
33422 H 50.88078635578857 62.48502629632543 7.619600156356441 H 0.0 **** 0.06
33423 H 50.19497946653418 64.01758249199219 7.030324966470971 H 0.0 **** 0.06
33424 H 49.11821242038826 62.7314602494132 7.625866867304325 H 0.0 **** 0.06
33425 H 49.983411329107184 62.52527022109558 6.08308483459092 H 0.0 **** 0.06
33426 C 83.98203217795563 100.40756199588546 215.37816969156233 C 0.0 **** -0.24
33427 H 83.9545176004878 101.29153663040609 214.7401262965265 H 0.0 **** 0.06
33428 H 84.08605086714789 100.71415840231435 216.41998797965533 H 0.0 **** 0.06
33429 H 84.82981785400762 99.78330641357317 215.09709678640894 H 0.0 **** 0.06
33430 H 83.05829421963654 99.84252604452743 215.25522611548 H 0.0 **** 0.06
33431 C 5.610709102286762 199.6531782151487 207.02160186354507 C 0.0 **** -0.24
33432 H 6.453800527194048 200.18251290900534 206.57703217787196 H 0.0 **** 0.06
33433 H 5.251954609034513 198.8944625222333 206.3259436990577 H 0.0 **** 0.06
33434 H 4.809016031890252 200.3601609059166 207.23344439510322 H 0.0 **** 0.06
33435 H 5.929764799893164 199.17582621696508 207.94774013281398 H 0.0 **** 0.06
33436 C 186.85471294369668 44.325560770736644 199.99563081408667 C 0.0 **** -0.24
33437 H 185.91863030103514 44.15716818008795 199.46338764738388 H 0.0 **** 0.06
33438 H 187.1909908797169 45.348311802639586 199.82284176965285 H 0.0 **** 0.06
33439 H 187.60953521973494 43.62804925348004 199.63310966983437 H 0.0 **** 0.06
33440 H 186.69843437133434 44.17026620708353 201.06319354133518 H 0.0 **** 0.06
33441 C 56.39623255847147 51.60402936814475 6.475282139445696 C 0.0 **** -0.24
33442 H 55.65220384026384 50.91646533784811 6.071804073546247 H 0.0 **** 0.06
33443 H 57.168232601387786 51.03727718592708 6.99678523341116 H 0.0 **** 0.06
33444 H 55.91508340783599 52.29033559037779 7.172063907627702 H 0.0 **** 0.06
33445 H 56.84714737736272 52.169834680445575 5.660610589402168 H 0.0 **** 0.06
33446 C 196.64738078868157 50.32349460516929 165.61422925863167 C 0.0 **** -0.24
33447 H 196.44803645524917 51.12921186058742 166.3210758575949 H 0.0 **** 0.06
33448 H 197.21471338916876 50.71470660035928 164.7690733706447 H 0.0 **** 0.06
33449 H 195.70395914579413 49.909503346144874 165.25915827354217 H 0.0 **** 0.06
33450 H 197.22403398146815 49.54190218553606 166.1089139603637 H 0.0 **** 0.06
33451 C 137.47470705256734 75.43182931541108 23.103846092225552 C 0.0 **** -0.24
33452 H 136.9198685693379 75.90791135801626 23.91253250790433 H 0.0 **** 0.06
33453 H 136.8445962960801 74.6829117587422 22.623131514019377 H 0.0 **** 0.06
33454 H 138.36654583627512 74.95295255273015 23.507573964845136 H 0.0 **** 0.06
33455 H 137.76616887460733 76.18572704941337 22.371435143417187 H 0.0 **** 0.06
33456 C 41.20415316704836 36.29734344082246 216.53300078763567 C 0.0 **** -0.24
33457 H 41.78529400851133 37.21310592260019 216.6422526532891 H 0.0 **** 0.06
33458 H 41.6860571074283 35.64506537916887 215.8049111717492 H 0.0 **** 0.06
33459 H 40.19903915560528 36.54430674499204 216.19122378577597 H 0.0 **** 0.06
33460 H 41.145104336480784 35.787476545293686 217.49480407185615 H 0.0 **** 0.06
33461 C 126.14893310712876 239.86622670734653 245.04227033166345 C 0.0 **** -0.24
33462 H 126.51602601737574 239.6935007681302 244.03079363392203 H 0.0 **** 0.06
33463 H 125.46021556637501 240.71199651545845 245.03908206455068 H 0.0 **** 0.06
33464 H 126.98925506413076 240.08314932999252 245.70187715024744 H 0.0 **** 0.06
33465 H 125.62940180859906 238.97543152893132 245.39654248290418 H 0.0 **** 0.06
33466 C 211.6632071813768 60.153355283209464 56.68561162497966 C 0.0 **** -0.24
33467 H 210.66882309482014 60.58350092055707 56.573913054755764 H 0.0 **** 0.06
33468 H 212.28873782562724 60.46043153256983 55.84784485984716 H 0.0 **** 0.06
33469 H 211.5886466702257 59.065822426720956 56.704574498859216 H 0.0 **** 0.06
33470 H 212.1074281042457 60.50246085402483 57.61781580981594 H 0.0 **** 0.06
33471 C 206.75351021549744 73.64241275426471 165.11970712760558 C 0.0 **** -0.24
33472 H 206.62044911201065 73.19098556408355 164.13581647428978 H 0.0 **** 0.06
33473 H 205.89908755612333 73.39544489913405 165.7506535410874 H 0.0 **** 0.06
33474 H 206.82780391976723 74.72464584568368 165.01482840268818 H 0.0 **** 0.06
33475 H 207.6654635640326 73.25866742546938 165.57541774528238 H 0.0 **** 0.06
33476 C 144.53384526092947 18.465075683809545 222.85184352259057 C 0.0 **** -0.24
33477 H 144.58678581850702 18.26110988409968 223.9212881537435 H 0.0 **** 0.06
33478 H 145.15729453767318 19.32820263519065 222.61655764695087 H 0.0 **** 0.06
33479 H 143.50163032212137 18.675421338418204 222.57333214625635 H 0.0 **** 0.06
33480 H 144.89076084179143 17.59699774851535 222.2985980752631 H 0.0 **** 0.06
33481 C 201.1613517641989 221.6078791479033 148.65168433195066 C 0.0 **** -0.24
33482 H 200.99521605745522 221.79873856452562 149.71169950862566 H 0.0 **** 0.06
33483 H 202.23161957578296 221.60101070121826 148.44679363152932 H 0.0 **** 0.06
33484 H 200.68259872067176 222.39035028320504 148.06303162145852 H 0.0 **** 0.06
33485 H 200.73463667598156 220.63981768869476 148.38602321264676 H 0.0 **** 0.06
33486 C 121.77996219368936 12.606726887267001 76.92529416642819 C 0.0 **** -0.24
33487 H 121.31295747557107 11.878435955978233 77.5892365536665 H 0.0 **** 0.06
33488 H 122.62178422486181 13.075301994886416 77.43502213788926 H 0.0 **** 0.06
33489 H 121.0492017816662 13.36928591769069 76.65353779277203 H 0.0 **** 0.06
33490 H 122.13283034444754 12.103735374453635 76.02550687721126 H 0.0 **** 0.06
33491 C 113.08570317861904 172.93328281782294 75.50419458328182 C 0.0 **** -0.24
33492 H 113.10721781280876 172.52111075806405 74.49561544526597 H 0.0 **** 0.06
33493 H 112.2601908564803 173.64011941674588 75.59071626883087 H 0.0 **** 0.06
33494 H 114.02641332246623 173.4465539910904 75.70612206353798 H 0.0 **** 0.06
33495 H 112.9504437719103 172.12637733253908 76.22341498469967 H 0.0 **** 0.06
33496 C 63.73434133667837 170.63236230172205 223.79325716943225 C 0.0 **** -0.24
33497 H 63.59313388271596 169.72924379734863 223.20009110137076 H 0.0 **** 0.06
33498 H 62.76227919038851 171.05818281058365 224.0436421829659 H 0.0 **** 0.06
33499 H 64.31217934945178 171.3574711053125 223.21982188367883 H 0.0 **** 0.06
33500 H 64.26977292415708 170.38455149364356 224.70947350971343 H 0.0 **** 0.06
33501 C 131.99942973245766 147.1961663993149 136.1929571555064 C 0.0 **** -0.24
33502 H 131.2417517550097 146.44536930665092 135.9683232790382 H 0.0 **** 0.06
33503 H 131.51442611139973 148.14015469559476 136.4418811500865 H 0.0 **** 0.06
33504 H 132.64053476463283 147.33582191549908 135.32245945570784 H 0.0 **** 0.06
33505 H 132.60252263379473 146.86218139499817 137.0379793742971 H 0.0 **** 0.06
33506 C 19.803400036027398 3.4992527583295896 7.40015895289288 C 0.0 **** -0.24
33507 H 19.0557882823812 3.78449488275092 8.139116426771523 H 0.0 **** 0.06
33508 H 20.10227995003956 2.4634151211905646 7.565714898336367 H 0.0 **** 0.06
33509 H 20.67449894525086 4.148357406575855 7.49478677536527 H 0.0 **** 0.06
33510 H 19.38304063619151 3.60019905877121 6.399724354765553 H 0.0 **** 0.06
33511 C 159.13608641294923 182.90884288906344 130.7153402582709 C 0.0 **** -0.24
33512 H 158.23740324797535 183.0518061864842 131.31587805025904 H 0.0 **** 0.06
33513 H 159.13683712877528 181.90106349135277 130.2982578858404 H 0.0 **** 0.06
33514 H 160.01774965533502 183.04297688926198 131.34259106339292 H 0.0 **** 0.06
33515 H 159.15128361082495 183.63767071441845 129.90527630365736 H 0.0 **** 0.06
33516 C 52.40316672466898 79.17591957330396 121.68916495064579 C 0.0 **** -0.24
33517 H 51.7259311952221 78.7784736969796 120.93356295443522 H 0.0 **** 0.06
33518 H 52.00332117736346 78.96706889062372 122.68122467443212 H 0.0 **** 0.06
33519 H 52.502928387069545 80.25324418069061 121.55701401601726 H 0.0 **** 0.06
33520 H 53.38048613902086 78.70489152492195 121.58485815769839 H 0.0 **** 0.06
33521 C 92.1817460457734 58.17256942919002 220.36595463297715 C 0.0 **** -0.24
33522 H 93.09978603694975 58.22384037784187 219.78116456236023 H 0.0 **** 0.06
33523 H 91.80096834998969 57.15112280022956 220.35572218401194 H 0.0 **** 0.06
33524 H 91.43844240179018 58.84268141891138 219.9354303346711 H 0.0 **** 0.06
33525 H 92.3889991046438 58.47311089221145 221.3933190152759 H 0.0 **** 0.06
33526 C 40.53924913591271 236.9364398918447 57.586592252070716 C 0.0 **** -0.24
33527 H 39.60848105717142 237.12035979524532 58.123494314713156 H 0.0 **** 0.06
33528 H 40.82020949203397 237.8314416087766 57.03078222902903 H 0.0 **** 0.06
33529 H 40.40186735572689 236.10626828216672 56.89404628978201 H 0.0 **** 0.06
33530 H 41.325941792803576 236.68955157429411 58.29918076349986 H 0.0 **** 0.06
33531 C 141.23090126834106 148.1771249511984 132.92764069002337 C 0.0 **** -0.24
33532 H 141.52385889326624 147.66113595036572 132.01361566612798 H 0.0 **** 0.06
33533 H 140.56733793624258 149.00584636426885 132.68088353872372 H 0.0 **** 0.06
33534 H 142.11965595752244 148.56098177775888 133.42871714149618 H 0.0 **** 0.06
33535 H 140.71332848967407 147.48082416186966 133.58811113353136 H 0.0 **** 0.06
33536 C 224.09971151463407 2.161484121059658 48.8907682419061 C 0.0 **** -0.24
33537 H 225.0848013887533 2.4458338085592715 49.26048267582942 H 0.0 **** 0.06
33538 H 224.1859431220342 1.2554451866685383 48.28916110311346 H 0.0 **** 0.06
33539 H 223.69443179166066 2.96645809109431 48.27801150477396 H 0.0 **** 0.06
33540 H 223.43548275637337 1.976111720896526 49.73388317030319 H 0.0 **** 0.06
33541 C 201.69394454880788 93.51635201785433 121.67498857345763 C 0.0 **** -0.24
33542 H 200.63775713207121 93.61246485251888 121.92538830714281 H 0.0 **** 0.06
33543 H 201.86632939281012 92.55688627792011 121.18695216898786 H 0.0 **** 0.06
33544 H 202.28960077650717 93.57289505387769 122.58634038096247 H 0.0 **** 0.06
33545 H 201.98375912915424 94.32341946977388 121.001661600782 H 0.0 **** 0.06
33546 C 210.77057780207863 130.80070948850718 151.87613356309768 C 0.0 **** -0.24
33547 H 211.06183034748565 131.73260764984389 152.36210409066754 H 0.0 **** 0.06
33548 H 210.73189954274892 130.00199069273003 152.61691277956163 H 0.0 **** 0.06
33549 H 211.50139626864856 130.54947617946982 151.10793322787734 H 0.0 **** 0.06
33550 H 209.78931944246995 130.92153086230138 151.4189205045852 H 0.0 **** 0.06
33551 C 128.05971881773655 115.55906170857327 14.089748966299197 C 0.0 **** -0.24
33552 H 128.23902596467613 114.53295550860358 13.769186055778135 H 0.0 **** 0.06
33553 H 126.99833134468292 115.78835320655384 13.99412673248034 H 0.0 **** 0.06
33554 H 128.63590814861172 116.24027807613376 13.464066395807123 H 0.0 **** 0.06
33555 H 128.36486850451644 115.67372267032354 15.128864975865696 H 0.0 **** 0.06
33556 C 39.14947420209202 233.00132492590757 13.035439242171364 C 0.0 **** -0.24
33557 H 38.28478269069504 232.70958687448518 12.439107898409802 H 0.0 **** 0.06
33558 H 39.463225663293514 232.16071074845615 13.654594632570621 H 0.0 **** 0.06
33559 H 38.88360354229931 233.843518826732 13.67396002544973 H 0.0 **** 0.06
33560 H 39.96631609496799 233.2900798742468 12.37392244571295 H 0.0 **** 0.06
33561 C 144.73722005572657 93.88159555120106 7.292006880449392 C 0.0 **** -0.24
33562 H 144.9412225295779 94.94371488483677 7.426242036946718 H 0.0 **** 0.06
33563 H 143.85871988280718 93.60403995828375 7.873713764640613 H 0.0 **** 0.06
33564 H 145.59586483761564 93.30191967344075 7.629730994227941 H 0.0 **** 0.06
33565 H 144.5539862233087 93.67815557108119 6.236902095496021 H 0.0 **** 0.06
33566 C 68.49761926408095 0.1705940570704314 22.184215322831733 C 0.0 **** -0.24
33567 H 69.0347657843009 -0.04795728218336137 21.26094585893277 H 0.0 **** 0.06
33568 H 67.52380607143206 0.5965808696077204 21.94542533620431 H 0.0 **** 0.06
33569 H 69.07140265438753 0.8824406809082888 22.777704644531468 H 0.0 **** 0.06
33570 H 68.36308993125132 -0.7504075001063484 22.752194695273644 H 0.0 **** 0.06
33571 C 218.84186139123415 127.12276674122066 26.79237656067727 C 0.0 **** -0.24
33572 H 219.21614545684326 128.1159287247313 26.543920764525822 H 0.0 **** 0.06
33573 H 219.64690839653508 126.39518422824779 26.68738332755555 H 0.0 **** 0.06
33574 H 218.0255567580822 126.86336589099662 26.117407283756705 H 0.0 **** 0.06
33575 H 218.47928608771872 127.11824647762413 27.819771944662875 H 0.0 **** 0.06
33576 C 83.10186351722948 45.975770068137464 138.18255279543845 C 0.0 **** -0.24
33577 H 82.46674707494796 46.68375246047688 138.71486248406015 H 0.0 **** 0.06
33578 H 84.08805195763046 45.95230773683245 138.64728331705615 H 0.0 **** 0.06
33579 H 83.19641518356019 46.28462678579724 137.1424465218174 H 0.0 **** 0.06
33580 H 82.6549993086152 44.98240010502643 138.2277309814843 H 0.0 **** 0.06
33581 C 153.2523246359693 125.51736054288355 11.627176749166878 C 0.0 **** -0.24
33582 H 152.35354361774372 125.80441336438031 11.080990945505846 H 0.0 **** 0.06
33583 H 153.70248936258835 126.40341971162809 12.07721614598968 H 0.0 **** 0.06
33584 H 153.96335907520498 125.05809235089845 10.939746510957505 H 0.0 **** 0.06
33585 H 152.99110853788548 124.80481900123382 12.409062458661012 H 0.0 **** 0.06
33586 C 191.92207456416264 31.280127383993175 194.25856367475183 C 0.0 **** -0.24
33587 H 190.99447123449397 31.845692397329373 194.3540249779275 H 0.0 **** 0.06
33588 H 191.691835396798 30.215875146364255 194.1950130261139 H 0.0 **** 0.06
33589 H 192.55151691395454 31.464740507110236 195.12873025992454 H 0.0 **** 0.06
33590 H 192.44685467269565 31.5932557400524 193.35645446239542 H 0.0 **** 0.06
33591 C 214.81130646524542 190.44068841314586 171.98737995892998 C 0.0 **** -0.24
33592 H 215.2736839007875 190.23982384719739 171.02184327618386 H 0.0 **** 0.06
33593 H 214.83917082941832 191.51149123391434 172.1878056560552 H 0.0 **** 0.06
33594 H 215.35512730321557 189.90945692876895 172.76838800849626 H 0.0 **** 0.06
33595 H 213.77559094595017 190.1001780751081 171.9713596686127 H 0.0 **** 0.06
33596 C 67.0775999372951 48.12302676870294 144.42084734824022 C 0.0 **** -0.24
33597 H 67.75543164678658 48.49599952442881 145.1888421847169 H 0.0 **** 0.06
33598 H 66.21928120911755 47.64548728780275 144.8954846760153 H 0.0 **** 0.06
33599 H 67.5997276324324 47.39634904340309 143.79824737668292 H 0.0 **** 0.06
33600 H 66.7365635847128 48.95307672996725 143.8034999415385 H 0.0 **** 0.06
33601 C 225.2384177415144 18.523689989291398 79.25544125401697 C 0.0 **** -0.24
33602 H 225.77122056726148 18.6694587760297 80.19462503256696 H 0.0 **** 0.06
33603 H 225.08276393341615 17.457980286960918 79.08724109665476 H 0.0 **** 0.06
33604 H 225.8266531255741 18.938855688926225 78.43642101354132 H 0.0 **** 0.06
33605 H 224.27428771774305 19.029563671003842 79.30300889762438 H 0.0 **** 0.06
33606 C 194.5298167965925 122.90270529594758 150.73432297891742 C 0.0 **** -0.24
33607 H 195.26758333707141 122.45582285220095 151.4017225557509 H 0.0 **** 0.06
33608 H 194.85877668684827 123.90274044722673 150.44799331408333 H 0.0 **** 0.06
33609 H 193.57043882434908 122.96811404088149 151.24540531080245 H 0.0 **** 0.06
33610 H 194.42616865375575 122.28469575840367 149.84222721777564 H 0.0 **** 0.06
33611 C 11.762701739535444 169.66966990154532 69.80556619284354 C 0.0 **** -0.24
33612 H 11.274252480644165 169.9167442973506 68.86318615822731 H 0.0 **** 0.06
33613 H 12.739089391697576 169.22843683559154 69.6036228590468 H 0.0 **** 0.06
33614 H 11.148610185229913 168.95846754928283 70.35744601684686 H 0.0 **** 0.06
33615 H 11.889844996117091 170.57699246393355 70.3975948632808 H 0.0 **** 0.06
33616 C 87.95346727750848 79.30251848156615 192.69195321557194 C 0.0 **** -0.24
33617 H 87.22482658287257 79.18537051009099 191.8887672620212 H 0.0 **** 0.06
33618 H 88.63438808088995 78.45102084570414 192.69149438019343 H 0.0 **** 0.06
33619 H 87.43370213633534 79.3530952971577 193.64857840356194 H 0.0 **** 0.06
33620 H 88.5194279360183 80.2207060346403 192.53659326659445 H 0.0 **** 0.06
33621 C 134.09702735086702 245.75393973405315 165.91692521952564 C 0.0 **** -0.24
33622 H 134.57698977575888 246.6946632876742 166.1859100355834 H 0.0 **** 0.06
33623 H 133.0775410323276 245.74339926326576 166.30259361960987 H 0.0 **** 0.06
33624 H 134.65789948439073 244.92392273725432 166.34746303595307 H 0.0 **** 0.06
33625 H 134.07691254749733 245.65375561298313 164.8310425739161 H 0.0 **** 0.06
33626 C 114.30643580164136 232.96360222671944 239.38517529327635 C 0.0 **** -0.24
33627 H 114.89782469797618 233.82870750963014 239.6868996747428 H 0.0 **** 0.06
33628 H 113.25496161354766 233.24493907327263 239.329811254552 H 0.0 **** 0.06
33629 H 114.43182602647522 232.16589936118902 240.11763758123803 H 0.0 **** 0.06
33630 H 114.6434921117748 232.61667962576115 238.4086163768809 H 0.0 **** 0.06
33631 C 51.051353872463665 115.4247635841227 87.22854802477102 C 0.0 **** -0.24
33632 H 51.310706925524556 114.37187801804748 87.33815890552344 H 0.0 **** 0.06
33633 H 49.976677899154254 115.51970631913636 87.07346740882488 H 0.0 **** 0.06
33634 H 51.581924753524945 115.84222985908156 86.3720288882582 H 0.0 **** 0.06
33635 H 51.3368205270684 115.9652448975443 88.13123640481214 H 0.0 **** 0.06
33636 C 154.7394254592093 226.51877969533604 226.1507682765868 C 0.0 **** -0.24
33637 H 153.9369486828554 226.09405107126594 226.75405112104423 H 0.0 **** 0.06
33638 H 154.345262711088 227.3353162937779 225.5450775231674 H 0.0 **** 0.06
33639 H 155.15116056861433 225.74709815949734 225.49926586727992 H 0.0 **** 0.06
33640 H 155.5246148744173 226.8973456819782 226.8057781639584 H 0.0 **** 0.06
33641 C 111.39498244372359 202.37093723870993 114.19080137818958 C 0.0 **** -0.24
33642 H 110.52549597077282 201.83016412749566 113.81788010117285 H 0.0 **** 0.06
33643 H 111.0960162009529 203.375769913419 114.4896860607775 H 0.0 **** 0.06
33644 H 112.14764985465925 202.43508157336447 113.4049497110737 H 0.0 **** 0.06
33645 H 111.80994054239332 201.84334372827175 115.04929565763388 H 0.0 **** 0.06
33646 C 70.93348569794583 204.68617808676171 157.63969446670185 C 0.0 **** -0.24
33647 H 71.26876948947663 204.26246739023628 156.69326983178104 H 0.0 **** 0.06
33648 H 70.76392907246009 205.75654669072983 157.51895018999835 H 0.0 **** 0.06
33649 H 71.69520467323912 204.52224684269555 158.40257540658374 H 0.0 **** 0.06
33650 H 70.0040375194246 204.2030610639506 157.9448986891294 H 0.0 **** 0.06
33651 C 213.34336793315012 40.165924526316616 62.175075503767175 C 0.0 **** -0.24
33652 H 213.69310566192297 39.14009614182052 62.28518546089876 H 0.0 **** 0.06
33653 H 213.5158930532866 40.71068150069486 63.10312748935283 H 0.0 **** 0.06
33654 H 212.27746103187488 40.16364389285775 61.94796134286446 H 0.0 **** 0.06
33655 H 213.88694252273785 40.649687866495285 61.36267641536156 H 0.0 **** 0.06
33656 C 237.90647231914915 94.69774780091566 18.82291628180124 C 0.0 **** -0.24
33657 H 238.90454254921195 94.69852881598632 18.38482294172431 H 0.0 **** 0.06
33658 H 237.62140108858063 95.71940983525465 19.076566952519798 H 0.0 **** 0.06
33659 H 237.9065079689929 94.08583986731895 19.72462257698315 H 0.0 **** 0.06
33660 H 237.19563524845734 94.28924864589081 18.10549265784921 H 0.0 **** 0.06
33661 C 226.41278037332577 84.22541015868592 228.14438012313775 C 0.0 **** -0.24
33662 H 225.63693628926734 83.86839741280272 227.46713613086786 H 0.0 **** 0.06
33663 H 226.79842101980267 85.17937371501603 227.7826724945338 H 0.0 **** 0.06
33664 H 227.22272496260487 83.4976088133532 228.1852154751591 H 0.0 **** 0.06
33665 H 225.9911847108775 84.35718201663965 229.14118795318558 H 0.0 **** 0.06
33666 C 22.06032621661953 214.48204359714737 220.07909037031024 C 0.0 **** -0.24
33667 H 23.0992669497503 214.66771432589823 220.35299931562218 H 0.0 **** 0.06
33668 H 21.532409316829813 215.43213172946443 219.99187875845286 H 0.0 **** 0.06
33669 H 21.585811904475207 213.87158103747169 220.84763197853832 H 0.0 **** 0.06
33670 H 22.025357737421103 213.95665043332838 219.1246361810998 H 0.0 **** 0.06
33671 C 37.937340229316405 117.0038747031845 237.9489355796028 C 0.0 **** -0.24
33672 H 38.66032820009117 117.16195832926672 238.748391343205 H 0.0 **** 0.06
33673 H 37.0369009773153 117.58334204289437 238.15485141971675 H 0.0 **** 0.06
33674 H 37.68358068012053 115.94496812784865 237.89351418259344 H 0.0 **** 0.06
33675 H 38.36824321825273 117.32402448950853 237.00084313301778 H 0.0 **** 0.06
33676 C 110.50837152567743 62.19588511875875 145.03747548007883 C 0.0 **** -0.24
33677 H 109.75235738511444 62.03623224248881 145.80541501840128 H 0.0 **** 0.06
33678 H 111.37036972662926 61.55823930213634 145.2392687036331 H 0.0 **** 0.06
33679 H 110.81871859008791 63.24078093296734 145.04482441437304 H 0.0 **** 0.06
33680 H 110.09268879030506 61.94707761482934 144.06073228731427 H 0.0 **** 0.06
33681 C 120.41023040849333 93.99188277471882 6.77044098141522 C 0.0 **** -0.24
33682 H 120.02250678028986 93.0903514110428 6.296034870627821 H 0.0 **** 0.06
33683 H 120.39789272358885 94.81329735283356 6.052963834399421 H 0.0 **** 0.06
33684 H 121.43229322100123 93.81502898918944 7.104530653618326 H 0.0 **** 0.06
33685 H 119.78670745686301 94.24837851821425 7.626666201448003 H 0.0 **** 0.06
33686 C 37.80544523483974 45.221367957248916 94.96378647384631 C 0.0 **** -0.24
33687 H 37.43951453594046 45.912039779652346 94.20344922263664 H 0.0 **** 0.06
33688 H 37.34580315167845 44.24364038020357 94.8174870732376 H 0.0 **** 0.06
33689 H 37.54755807668265 45.601135985024925 95.95222515391967 H 0.0 **** 0.06
33690 H 38.88898864206672 45.13085110326348 94.87994159080986 H 0.0 **** 0.06
33691 C 191.2675130761962 79.94222032077548 226.38423417375515 C 0.0 **** -0.24
33692 H 190.69533683703108 80.83205520244636 226.1210672930136 H 0.0 **** 0.06
33693 H 191.24999324175968 79.23968344255172 225.55111439980925 H 0.0 **** 0.06
33694 H 190.8252068302112 79.47385488089535 227.2645997724994 H 0.0 **** 0.06
33695 H 192.29745844424872 80.22338128723362 226.60148197795826 H 0.0 **** 0.06
33696 C 140.00890405382526 190.88782143462421 131.31315911475264 C 0.0 **** -0.24
33697 H 140.8441942168957 191.58784414190748 131.3515665706272 H 0.0 **** 0.06
33698 H 139.4411048121874 191.0501589066458 130.3967055476657 H 0.0 **** 0.06
33699 H 139.36211811166757 191.04921909125514 132.17533734859524 H 0.0 **** 0.06
33700 H 140.38973823991228 189.8666644012276 131.3299580632891 H 0.0 **** 0.06
33701 C 186.57307021248658 164.13715039663833 43.9130159482703 C 0.0 **** -0.24
33702 H 185.75979367744927 163.48209747612532 44.2229715953666 H 0.0 **** 0.06
33703 H 186.43584870230353 165.12240221107052 44.35934172024943 H 0.0 **** 0.06
33704 H 186.57384604925048 164.22630312437803 42.82675043905758 H 0.0 **** 0.06
33705 H 187.52321270078158 163.7178025124224 44.24390743061949 H 0.0 **** 0.06
33706 C 154.3672595358035 156.36977693636342 107.39688093890922 C 0.0 **** -0.24
33707 H 153.96479496960862 157.2996401599274 106.9946182998955 H 0.0 **** 0.06
33708 H 155.45531914358475 156.38862445306734 107.33520736757623 H 0.0 **** 0.06
33709 H 153.98501167737024 155.52890112175254 106.81880481855407 H 0.0 **** 0.06
33710 H 154.06262985782521 156.26400205815258 108.4385593984259 H 0.0 **** 0.06
33711 C 211.60673616952505 43.127818660026634 234.59620964644319 C 0.0 **** -0.24
33712 H 211.68871035975522 43.79394985937094 233.73679354487066 H 0.0 **** 0.06
33713 H 212.0137400807762 43.62095416065674 235.47865950787593 H 0.0 **** 0.06
33714 H 212.16466382471046 42.21218466205559 234.40014414088333 H 0.0 **** 0.06
33715 H 210.55752485342845 42.883740246031124 234.766899204352 H 0.0 **** 0.06
33716 C 166.6583710642275 221.70304624362655 37.5854600590761 C 0.0 **** -0.24
33717 H 167.73645517542934 221.74073600594667 37.43106221448059 H 0.0 **** 0.06
33718 H 166.15208190348054 222.11487007861354 36.71336948591349 H 0.0 **** 0.06
33719 H 166.39767857268058 222.2877953595431 38.467645110938264 H 0.0 **** 0.06
33720 H 166.34838826475217 220.66833421698016 37.731895217323114 H 0.0 **** 0.06
33721 C 168.31642502384378 42.89121007801474 137.597689285847 C 0.0 **** -0.24
33722 H 168.68797357690093 41.99414736090188 137.10379384174124 H 0.0 **** 0.06
33723 H 168.01433108682187 43.62046887067797 136.84569896667443 H 0.0 **** 0.06
33724 H 169.10440028189336 43.31638261432455 138.22030384400654 H 0.0 **** 0.06
33725 H 167.46024544586146 42.63403978937441 138.2203300569631 H 0.0 **** 0.06
33726 C 77.39651425233873 82.98640719756472 98.65786359873135 C 0.0 **** -0.24
33727 H 78.20571013011411 83.32875642074475 98.01223397038444 H 0.0 **** 0.06
33728 H 77.21210991388833 81.92779289715816 98.47855001997937 H 0.0 **** 0.06
33729 H 76.49243505660891 83.55541766139928 98.43992903501831 H 0.0 **** 0.06
33730 H 77.67662670943304 83.13570807773309 99.70037730253097 H 0.0 **** 0.06
33731 C 224.9764097243486 213.22927847839148 93.15697275212042 C 0.0 **** -0.24
33732 H 225.61219831539694 214.03828925301664 93.51842401502242 H 0.0 **** 0.06
33733 H 224.07648772918415 213.64921583174834 92.70783737248067 H 0.0 **** 0.06
33734 H 224.6995625195812 212.58383879443528 93.99043529275113 H 0.0 **** 0.06
33735 H 225.51868409225867 212.6485683900044 92.41049041724094 H 0.0 **** 0.06
33736 C 33.29757802046923 175.43568554169175 30.093936082891588 C 0.0 **** -0.24
33737 H 33.488016152060155 175.6515821786073 31.14500340926263 H 0.0 **** 0.06
33738 H 34.0131226027639 174.69222600336147 29.740523505858107 H 0.0 **** 0.06
33739 H 33.40532734965744 176.350635360347 29.509605268421694 H 0.0 **** 0.06
33740 H 32.285573449501086 175.04906367004125 29.979416073587686 H 0.0 **** 0.06
33741 C 70.78615512616707 176.5557094683579 58.59703887636152 C 0.0 **** -0.24
33742 H 70.50871796133836 177.3368238676747 57.890745408348835 H 0.0 **** 0.06
33743 H 71.30096159920478 175.75377123147172 58.06813252704049 H 0.0 **** 0.06
33744 H 69.88853637037755 176.160954546121 59.07253512792144 H 0.0 **** 0.06
33745 H 71.44701124492659 176.97220338903895 59.35763376145465 H 0.0 **** 0.06
33746 C 147.79146555554317 62.69158686680069 214.18823766138624 C 0.0 **** -0.24
33747 H 148.8643302931274 62.55655263522431 214.05635678251537 H 0.0 **** 0.06
33748 H 147.39538078399525 61.879222966188166 214.7977377169967 H 0.0 **** 0.06
33749 H 147.3021040179682 62.68771986573134 213.21342079806556 H 0.0 **** 0.06
33750 H 147.60357964539998 63.64402777268148 214.6848036525565 H 0.0 **** 0.06
33751 C 107.1700253473729 118.34778626139465 75.34542208242672 C 0.0 **** -0.24
33752 H 108.1582097937561 118.54426570787751 75.7619984876712 H 0.0 **** 0.06
33753 H 106.41172469640793 118.80564334803319 75.98037056631398 H 0.0 **** 0.06
33754 H 107.00391570684633 117.27146088388653 75.29830690524483 H 0.0 **** 0.06
33755 H 107.10734274609038 118.76906633098235 74.34253098430284 H 0.0 **** 0.06
33756 C 144.84936605478703 221.70229464090673 1.1813503812253856 C 0.0 **** -0.24
33757 H 144.09617667917618 221.74951898084404 0.3954495057302836 H 0.0 **** 0.06
33758 H 145.469217007942 220.81664749171316 1.0379959180229577 H 0.0 **** 0.06
33759 H 144.3578342329281 221.6489578002582 2.1530258535112665 H 0.0 **** 0.06
33760 H 145.47490463421855 222.594486109676 1.1395359458933285 H 0.0 **** 0.06
33761 C 211.47843794733026 81.17999085842445 146.96153055805667 C 0.0 **** -0.24
33762 H 210.56243788043582 81.76946204405644 147.0076193116453 H 0.0 **** 0.06
33763 H 211.43708013484144 80.38536038865496 147.70720376219631 H 0.0 **** 0.06
33764 H 212.33487732381428 81.82369147478951 147.16320029776975 H 0.0 **** 0.06
33765 H 211.57852018798337 80.74199740336715 145.96812135059702 H 0.0 **** 0.06
33766 C 107.08274650075276 164.9645313163198 52.96127145191302 C 0.0 **** -0.24
33767 H 106.28969609709873 164.9830758128664 53.70857308068338 H 0.0 **** 0.06
33768 H 107.58505544890525 165.93219286971933 52.941161322041495 H 0.0 **** 0.06
33769 H 106.65379590661058 164.7570463589234 51.980816480172635 H 0.0 **** 0.06
33770 H 107.8025456463705 164.18604135216611 53.215501940708094 H 0.0 **** 0.06
33771 C 191.33938733701663 54.34103958291357 70.79226282308983 C 0.0 **** -0.24
33772 H 191.85853290282787 54.63677232285008 69.8795401840174 H 0.0 **** 0.06
33773 H 190.26320389229394 54.35047389515003 70.61712640713534 H 0.0 **** 0.06
33774 H 191.58419213965416 55.04046958899946 71.5915861892752 H 0.0 **** 0.06
33775 H 191.65279500087578 53.33733218413167 71.07818528831717 H 0.0 **** 0.06
33776 C 50.29169367320526 51.62440859830937 248.5272250064296 C 0.0 **** -0.24
33777 H 49.83482528536935 50.92547074104837 247.82741810025192 H 0.0 **** 0.06
33778 H 51.0086016234211 52.252446059496435 247.99735472275466 H 0.0 **** 0.06
33779 H 50.80381564209337 51.069659194187494 249.31217706725923 H 0.0 **** 0.06
33780 H 49.51764273491901 52.251162257241816 248.9708493650704 H 0.0 **** 0.06
33781 C 93.98432273869298 134.8848239026547 121.06466590234163 C 0.0 **** -0.24
33782 H 93.74413990504397 134.72907429972724 122.11656886364645 H 0.0 **** 0.06
33783 H 93.56267629162173 135.83349680441717 120.73203762459417 H 0.0 **** 0.06
33784 H 93.5632865024424 134.07213962597993 120.47223503793975 H 0.0 **** 0.06
33785 H 95.06674544911564 134.9031044422656 120.93860454994214 H 0.0 **** 0.06
33786 C 1.1262644537877975 20.508635517288525 8.880922999112144 C 0.0 **** -0.24
33787 H 1.3093154682422607 21.124649485836215 9.761159150798335 H 0.0 **** 0.06
33788 H 2.0614482395833136 20.04834335404317 8.55917776083055 H 0.0 **** 0.06
33789 H 0.7321422968626337 21.131218589566032 8.078325588905841 H 0.0 **** 0.06
33790 H 0.4039045212967949 19.73030331838251 9.1264177707302 H 0.0 **** 0.06
33791 C 198.15524871501907 10.999681120102792 183.68228618660453 C 0.0 **** -0.24
33792 H 197.62922857072599 11.904900234168466 183.9835364486542 H 0.0 **** 0.06
33793 H 199.2223443577823 11.119269349131798 183.8704433459152 H 0.0 **** 0.06
33794 H 197.99061322471323 10.821506877504518 182.61952296474195 H 0.0 **** 0.06
33795 H 197.77793003286195 10.152851203459392 184.25520700991672 H 0.0 **** 0.06
33796 C 64.07444476633847 245.68620647616885 194.18249144908702 C 0.0 **** -0.24
33797 H 65.05277881182556 245.21383586395348 194.10391630623155 H 0.0 **** 0.06
33798 H 63.71048885008466 245.6010189241382 195.20712199495534 H 0.0 **** 0.06
33799 H 63.37695071222973 245.19204194837738 193.5071567024109 H 0.0 **** 0.06
33800 H 64.15685981685974 246.73966821066284 193.9133470430158 H 0.0 **** 0.06
33801 C 164.4259516270182 192.84586229627956 105.39510154747168 C 0.0 **** -0.24
33802 H 163.97499703842448 193.80344947818523 105.13528562311487 H 0.0 **** 0.06
33803 H 165.08377956948587 192.97490727296338 106.25472609546435 H 0.0 **** 0.06
33804 H 165.00276835709508 192.47541248226858 104.54799296009168 H 0.0 **** 0.06
33805 H 163.64063065627911 192.1306247668532 105.64173250332217 H 0.0 **** 0.06
33806 C 47.03967750282169 20.803366299701025 124.12951691098584 C 0.0 **** -0.24
33807 H 46.234187830108226 21.005826662681528 123.42362898969614 H 0.0 **** 0.06
33808 H 47.63685792241026 21.70416630786164 124.26760185356025 H 0.0 **** 0.06
33809 H 47.671005705010046 20.004688326274646 123.73947746463486 H 0.0 **** 0.06
33810 H 46.616011161916276 20.496970628787523 125.0862222464352 H 0.0 **** 0.06
33811 C 27.965534788140047 61.612491406391285 183.06210726460668 C 0.0 **** -0.24
33812 H 28.92619628810658 62.12648983964124 183.10514991889733 H 0.0 **** 0.06
33813 H 28.096493252036424 60.57375352681464 183.36397157022165 H 0.0 **** 0.06
33814 H 27.57992393678009 61.649508047929146 182.04333073987678 H 0.0 **** 0.06
33815 H 27.26114779760482 62.10131705458409 183.73450968418484 H 0.0 **** 0.06
33816 C 62.97032392272277 236.40679694996905 236.21552525417425 C 0.0 **** -0.24
33817 H 63.954180873667156 236.3563575369104 235.75063503001854 H 0.0 **** 0.06
33818 H 62.28766681862567 235.73305008636314 235.69650018432236 H 0.0 **** 0.06
33819 H 62.591727298332756 237.42679251477085 236.15415582449975 H 0.0 **** 0.06
33820 H 63.048120390480705 236.11004155218464 237.26178216289148 H 0.0 **** 0.06
33821 C 25.435034964771717 176.19220032298136 28.23380148109672 C 0.0 **** -0.24
33822 H 24.63035026236605 176.83766916213568 28.5854121653542 H 0.0 **** 0.06
33823 H 26.141137769884523 176.016448260561 29.04636140258239 H 0.0 **** 0.06
33824 H 25.950213697820615 176.673772687312 27.40224720938224 H 0.0 **** 0.06
33825 H 25.019226789350782 175.24113264577977 27.901758713429302 H 0.0 **** 0.06
33826 C 192.6250936272104 195.99881158155043 144.04124978591724 C 0.0 **** -0.24
33827 H 192.90249359283644 196.32099687585398 145.04450720863835 H 0.0 **** 0.06
33828 H 192.03099753089597 195.08657147719816 144.1037349721936 H 0.0 **** 0.06
33829 H 193.52645495101456 195.80610075944378 143.45963748402733 H 0.0 **** 0.06
33830 H 192.04136105347763 196.78124048930778 143.55698968087572 H 0.0 **** 0.06
33831 C 4.18584899281592 110.70000161806777 26.874660862713014 C 0.0 **** -0.24
33832 H 3.4609382943437197 111.33673309995226 26.367502042851157 H 0.0 **** 0.06
33833 H 5.06629755489881 110.57899537656525 26.244530418793886 H 0.0 **** 0.06
33834 H 3.739587494882727 109.72482563734809 27.069450623055843 H 0.0 **** 0.06
33835 H 4.475279415190073 111.16099305090893 27.819148819662402 H 0.0 **** 0.06
33836 C 84.73367322694301 220.5537433643139 172.08486763894834 C 0.0 **** -0.24
33837 H 84.58679480543952 221.28870659423035 171.29310229857197 H 0.0 **** 0.06
33838 H 85.67371453156039 220.027171018229 171.92154747975167 H 0.0 **** 0.06
33839 H 83.91028406277275 219.83924080031105 172.07443000580105 H 0.0 **** 0.06
33840 H 84.76286995298904 221.06076775858435 173.05006368004686 H 0.0 **** 0.06
33841 C 152.70237347783404 208.37798056256386 111.24761331790947 C 0.0 **** -0.24
33842 H 153.1722349833396 207.549068332676 110.71925052642874 H 0.0 **** 0.06
33843 H 153.28611477480598 208.62064889673465 112.13552533277556 H 0.0 **** 0.06
33844 H 151.69184004260714 208.0940045994692 111.54263264790177 H 0.0 **** 0.06
33845 H 152.65814368959875 209.24814979027906 110.5922379937432 H 0.0 **** 0.06
33846 C 200.35458624305977 191.93525345394698 132.6329823869823 C 0.0 **** -0.24
33847 H 200.90621342147278 191.07441136858336 132.25540070406151 H 0.0 **** 0.06
33848 H 200.96346381517577 192.46272296925042 133.36728789711975 H 0.0 **** 0.06
33849 H 199.4302372721025 191.5973710180961 133.1006884923616 H 0.0 **** 0.06
33850 H 200.11965959742724 192.606048368526 131.80648421741958 H 0.0 **** 0.06
33851 C 228.1506546101856 225.18226473645586 216.8741571872124 C 0.0 **** -0.24
33852 H 228.59883219229027 224.19315712106084 216.78721159495186 H 0.0 **** 0.06
33853 H 227.28306964765056 225.13082254006764 217.5324721637725 H 0.0 **** 0.06
33854 H 227.8385724118075 225.52790934629616 215.88843609167867 H 0.0 **** 0.06
33855 H 228.88066268147736 225.87721739093146 217.28761284434825 H 0.0 **** 0.06
33856 C 189.85467571848244 19.03681238650897 211.82030873765837 C 0.0 **** -0.24
33857 H 190.80069683550403 18.85177389558382 212.33002373730238 H 0.0 **** 0.06
33858 H 189.85374891992754 18.522132411981545 210.8596666449484 H 0.0 **** 0.06
33859 H 189.73296588070798 20.108131576207356 211.65843692282056 H 0.0 **** 0.06
33860 H 189.0337163220039 18.665013274306347 212.43282539177525 H 0.0 **** 0.06
33861 C 140.5471615942311 177.78665157132644 29.673271060265648 C 0.0 **** -0.24
33862 H 140.4376107328134 177.91205018662217 30.749919263423976 H 0.0 **** 0.06
33863 H 139.83459823293367 178.43042871739038 29.157713100038507 H 0.0 **** 0.06
33864 H 140.3558596940792 176.74662028435824 29.40693089271481 H 0.0 **** 0.06
33865 H 141.56129510730352 178.05491420167738 29.377193455934957 H 0.0 **** 0.06
33866 C 60.59797994597372 65.25888876435971 167.92923853034716 C 0.0 **** -0.24
33867 H 59.81553997755819 65.74628476672098 167.34754926448053 H 0.0 **** 0.06
33868 H 60.14932968514188 64.53228270228351 168.60573179064048 H 0.0 **** 0.06
33869 H 61.13996357681569 66.00756545662202 168.50629270038536 H 0.0 **** 0.06
33870 H 61.28791626247332 64.75021860147592 167.2552176679412 H 0.0 **** 0.06
33871 C 94.76023785696478 23.304605348323577 6.46496024054197 C 0.0 **** -0.24
33872 H 94.61781624520705 22.738261371795005 5.544360350250429 H 0.0 **** 0.06
33873 H 94.6424812549015 22.64023187383745 7.320788981715566 H 0.0 **** 0.06
33874 H 94.01823991436498 24.101614745719957 6.518966245079426 H 0.0 **** 0.06
33875 H 95.76040901896386 23.73663286396763 6.474257094577894 H 0.0 **** 0.06
33876 C 210.91347466267646 56.97874377888223 44.3564990787374 C 0.0 **** -0.24
33877 H 210.1120276765301 56.95571625118711 45.094483512343615 H 0.0 **** 0.06
33878 H 211.21487163680337 55.959323552489764 44.11570282781375 H 0.0 **** 0.06
33879 H 211.76629447414217 57.52353219653057 44.76421655433394 H 0.0 **** 0.06
33880 H 210.56185935781173 57.4777571998558 43.45400872271125 H 0.0 **** 0.06
33881 C 122.26521442968948 39.00524074711089 26.873345251224535 C 0.0 **** -0.24
33882 H 123.0024030922144 38.20654420143467 26.965118282185458 H 0.0 **** 0.06
33883 H 122.17121434417695 39.52381184237541 27.828395820241113 H 0.0 **** 0.06
33884 H 121.30187730464061 38.57949385765431 26.594557288870448 H 0.0 **** 0.06
33885 H 122.5870335613254 39.71057033251596 26.106693310358907 H 0.0 **** 0.06
33886 C 224.38183238699526 69.80192375481747 12.760773618656884 C 0.0 **** -0.24
33887 H 225.03172695702938 68.92853185958731 12.809663382625956 H 0.0 **** 0.06
33888 H 224.08833549137768 70.09281927438656 13.770309628783906 H 0.0 **** 0.06
33889 H 223.4924309919747 69.56099475224661 12.179687626684697 H 0.0 **** 0.06
33890 H 224.91518129542752 70.62532547468459 12.285642984407716 H 0.0 **** 0.06
33891 C 71.13000889386299 234.27722716418856 224.37314193873385 C 0.0 **** -0.24
33892 H 71.90944028129033 235.02705220893964 224.50480694440188 H 0.0 **** 0.06
33893 H 70.22238429374218 234.75724050632607 224.00605291148432 H 0.0 **** 0.06
33894 H 70.92561455628854 233.794161295025 225.32774178851383 H 0.0 **** 0.06
33895 H 71.46296425753494 233.53052163791642 223.6509894827315 H 0.0 **** 0.06
33896 C 6.469334408519629 106.17458902518317 35.72907904171511 C 0.0 **** -0.24
33897 H 6.886825982668682 106.49505278815624 34.77423228056179 H 0.0 **** 0.06
33898 H 7.217896865040643 106.29540377117095 36.51131148958271 H 0.0 **** 0.06
33899 H 6.175839629610849 105.12669317416314 35.66349952249634 H 0.0 **** 0.06
33900 H 5.595848783334446 106.78289021497747 35.96575414201499 H 0.0 **** 0.06
33901 C 234.22531235408127 193.2430700676652 175.4009731061613 C 0.0 **** -0.24
33902 H 235.1190489331401 192.91875772865032 175.9338839818824 H 0.0 **** 0.06
33903 H 234.0722334407568 194.30954519089588 175.5647235936313 H 0.0 **** 0.06
33904 H 233.3618513995554 192.69055344826882 175.77163890660637 H 0.0 **** 0.06
33905 H 234.34901465569166 193.05213308299034 174.33523515891702 H 0.0 **** 0.06
33906 C 243.71217750273541 69.78541452977947 36.99630117615288 C 0.0 **** -0.24
33907 H 242.63475774211426 69.68346549025529 37.12430749258132 H 0.0 **** 0.06
33908 H 244.0200299227987 69.26972334855361 36.08657425878951 H 0.0 **** 0.06
33909 H 244.22289180819337 69.34499597082672 37.85361499067059 H 0.0 **** 0.06
33910 H 243.97127447021978 70.84062133007785 36.92205213809599 H 0.0 **** 0.06
33911 C 41.426892977318644 226.0719374327645 41.2599554329436 C 0.0 **** -0.24
33912 H 42.428660716794326 226.46887997355114 41.09427022266587 H 0.0 **** 0.06
33913 H 41.32704280242481 225.75954542899424 42.29987021607093 H 0.0 **** 0.06
33914 H 41.26290649996075 225.21652721449252 40.60483226904901 H 0.0 **** 0.06
33915 H 40.68950357037353 226.8440868635686 41.04064130289399 H 0.0 **** 0.06
33916 C 26.862233592263507 55.15323087957441 210.61501439064142 C 0.0 **** -0.24
33917 H 27.45185197958584 54.469565734394024 211.2254844488262 H 0.0 **** 0.06
33918 H 25.871613041222403 54.73052476042827 210.4477331045585 H 0.0 **** 0.06
33919 H 27.35876026484705 55.30642427894011 209.6568590720599 H 0.0 **** 0.06
33920 H 26.76694801970595 56.10920604065106 211.13103835450283 H 0.0 **** 0.06
33921 C 116.37683286915009 75.34491895821037 59.057061109316436 C 0.0 **** -0.24
33922 H 115.91057425447295 74.4846891019975 59.5362949328277 H 0.0 **** 0.06
33923 H 115.63741584956301 75.86704488349068 58.44944728238207 H 0.0 **** 0.06
33924 H 117.19555509260334 75.00768900410247 58.42190802416994 H 0.0 **** 0.06
33925 H 116.7641925571017 76.02036688018319 59.81968758650268 H 0.0 **** 0.06
33926 C 31.68344783578877 207.0017729070102 58.92497646886537 C 0.0 **** -0.24
33927 H 31.081078436555543 207.03780397358867 58.01638114990055 H 0.0 **** 0.06
33928 H 31.713988159599225 207.99162109691096 59.37971201060253 H 0.0 **** 0.06
33929 H 32.695414125239196 206.68349060112288 58.67692574783854 H 0.0 **** 0.06
33930 H 31.240707209646686 206.29235342421063 59.62518380878822 H 0.0 **** 0.06
33931 C 198.2179322881413 184.36418507464595 226.4545744442634 C 0.0 **** -0.24
33932 H 197.44088588387953 185.00163897821204 226.03146690960313 H 0.0 **** 0.06
33933 H 198.34252727261554 183.48017944191048 225.82899335238406 H 0.0 **** 0.06
33934 H 197.9292659684174 184.06000565137356 227.46040057132834 H 0.0 **** 0.06
33935 H 199.1564218924673 184.91635748979684 226.49731142526176 H 0.0 **** 0.06
33936 C 163.80939221594605 111.69407380951364 196.52326401776685 C 0.0 **** -0.24
33937 H 163.9463331193871 111.47153658863436 195.46529618358142 H 0.0 **** 0.06
33938 H 164.7232732171139 111.45177210782475 197.06647022031 H 0.0 **** 0.06
33939 H 162.98468724435236 111.09850399280839 196.91515159779357 H 0.0 **** 0.06
33940 H 163.58319383641106 112.75325260301622 196.6454448022327 H 0.0 **** 0.06
33941 C 52.37555099463624 190.0340618670691 157.87334416697496 C 0.0 **** -0.24
33942 H 52.0258452997617 191.06562462470617 157.9019931573514 H 0.0 **** 0.06
33943 H 53.03457305503147 189.8504714546815 158.72279638333347 H 0.0 **** 0.06
33944 H 52.92079469758282 189.86072942583795 156.94592099932206 H 0.0 **** 0.06
33945 H 51.52118185278778 189.35895698073637 157.92484497785568 H 0.0 **** 0.06
33946 C 136.51484032742704 213.01813543011977 28.142742165480826 C 0.0 **** -0.24
33947 H 137.07684679118097 212.73882517250613 29.035051026248695 H 0.0 **** 0.06
33948 H 136.71766115147744 214.06113997291007 27.898642163947358 H 0.0 **** 0.06
33949 H 135.44912928267257 212.88941075021418 28.3306530226223 H 0.0 **** 0.06
33950 H 136.81716875879818 212.3835533398029 27.310052155258873 H 0.0 **** 0.06
33951 C 228.05472165186814 54.4978909855283 227.90679119339887 C 0.0 **** -0.24
33952 H 228.25599940461416 55.08036006929521 228.80565135947353 H 0.0 **** 0.06
33953 H 228.72927195164797 53.642632847446265 227.8698050212461 H 0.0 **** 0.06
33954 H 228.2120415766932 55.12306813813487 227.0267653090941 H 0.0 **** 0.06
33955 H 227.02291292975374 54.14772778323223 227.92382223092721 H 0.0 **** 0.06
33956 C 12.185484216857873 169.06677821191298 38.70082561942368 C 0.0 **** -0.24
33957 H 11.185339565936289 168.77316460139096 38.382135654719235 H 0.0 **** 0.06
33958 H 12.514819734023831 168.4129858914487 39.50826557730326 H 0.0 **** 0.06
33959 H 12.16606750857963 170.0981445170464 39.05268227080697 H 0.0 **** 0.06
33960 H 12.874286829545241 168.98207552605535 37.86086968275961 H 0.0 **** 0.06
33961 C 214.8787316727176 2.7813246970031287 116.84595804160213 C 0.0 **** -0.24
33962 H 215.94758574558722 2.877730274042065 117.03582247126496 H 0.0 **** 0.06
33963 H 214.7063606175127 2.701315939115119 115.77183867951283 H 0.0 **** 0.06
33964 H 214.36034382715127 3.658508030209802 117.23283270876706 H 0.0 **** 0.06
33965 H 214.50006708414503 1.887311013242865 117.34211853849345 H 0.0 **** 0.06
33966 C 65.96195312189832 230.1008009925227 175.43294097956746 C 0.0 **** -0.24
33967 H 66.20731272670108 230.45627709135246 176.43321342589198 H 0.0 **** 0.06
33968 H 66.75952690161796 230.3783644263724 174.7427126191397 H 0.0 **** 0.06
33969 H 65.0250996695751 230.5525171271782 175.10617085289454 H 0.0 **** 0.06
33970 H 65.85651359069615 229.01597459455763 175.44890223705514 H 0.0 **** 0.06
33971 C 78.14122726333224 239.62747874118267 221.76798168288286 C 0.0 **** -0.24
33972 H 78.60258137296964 238.9659075647314 222.50086470804746 H 0.0 **** 0.06
33973 H 77.25748026392142 239.14523141095177 221.3484625094989 H 0.0 **** 0.06
33974 H 78.85393212036942 239.83770407832375 220.9694638811372 H 0.0 **** 0.06
33975 H 77.85169412795273 240.56016438347342 222.25124622450852 H 0.0 **** 0.06
33976 C 164.75028694201328 106.17751396732788 91.56630536651718 C 0.0 **** -0.24
33977 H 163.74628400388468 105.78361280773618 91.72724186106839 H 0.0 **** 0.06
33978 H 165.05434225483708 105.98696735030467 90.53706733651535 H 0.0 **** 0.06
33979 H 165.44571104110713 105.68841158298557 92.24802139531732 H 0.0 **** 0.06
33980 H 164.75199684670994 107.2518311340915 91.75359466554076 H 0.0 **** 0.06
33981 C 21.348397840876856 211.05803002089849 224.5750765996329 C 0.0 **** -0.24
33982 H 21.727597540108007 210.33547093026985 225.29846482745052 H 0.0 **** 0.06
33983 H 21.23719260439489 210.57433520260622 223.60394669070013 H 0.0 **** 0.06
33984 H 22.049393625224496 211.88824170666635 224.49018823906164 H 0.0 **** 0.06
33985 H 20.380353805693034 211.43155413464666 224.90903475866304 H 0.0 **** 0.06
33986 C 213.05692744538555 28.673458071782164 145.86262935769403 C 0.0 **** -0.24
33987 H 212.1731278460448 28.805013537852886 145.2382248426347 H 0.0 **** 0.06
33988 H 212.95462616429538 29.27380404613743 146.76762037721704 H 0.0 **** 0.06
33989 H 213.9417568209057 28.993035231971447 145.31283214377927 H 0.0 **** 0.06
33990 H 213.15634700116078 27.62277515033699 146.13406206325118 H 0.0 **** 0.06
33991 C 132.13838253705165 33.857197697703185 133.69620362059567 C 0.0 **** -0.24
33992 H 132.0693868414102 33.004668110393 133.02066571343903 H 0.0 **** 0.06
33993 H 132.97553792162924 34.48898628860988 133.39839392781172 H 0.0 **** 0.06
33994 H 132.29523717609263 33.50090978919147 134.714924450622 H 0.0 **** 0.06
33995 H 131.21444867764498 34.4326757137039 133.6514841260778 H 0.0 **** 0.06
33996 C 24.983228092388316 184.4049495579837 134.40374576983152 C 0.0 **** -0.24
33997 H 25.660012008985944 184.59079285609522 135.23878372404292 H 0.0 **** 0.06
33998 H 25.462848809029225 184.7087074642477 133.47365294406356 H 0.0 **** 0.06
33999 H 24.06808317017854 184.97919909658134 134.54527597810088 H 0.0 **** 0.06
34000 H 24.74341223641531 183.34358061373877 134.36055008899447 H 0.0 **** 0.06
34001 C 153.38497819950933 11.96829194888224 242.88499402557773 C 0.0 **** -0.24
34002 H 152.87615969759804 12.924234027268511 242.7609051699041 H 0.0 **** 0.06
34003 H 154.42389518245267 12.067068729120507 242.5701111572113 H 0.0 **** 0.06
34004 H 152.89089432792164 11.211396695296884 242.27498641752373 H 0.0 **** 0.06
34005 H 153.34939314379562 11.670005487827638 243.93270794573255 H 0.0 **** 0.06
34006 C 163.19937128086644 217.07259415846102 205.5884545459682 C 0.0 **** -0.24
34007 H 162.48073229085477 217.82631604890676 205.91041399041228 H 0.0 **** 0.06
34008 H 164.15049754628026 217.2383049532584 206.0950671545353 H 0.0 **** 0.06
34009 H 163.34392723437188 217.1453467065933 204.51091976509184 H 0.0 **** 0.06
34010 H 162.82195705410422 216.08088310135477 205.83869693665335 H 0.0 **** 0.06
34011 C 239.69674896442186 184.70487893109274 103.6328456992239 C 0.0 **** -0.24
34012 H 240.32367057384434 184.08445648966045 102.99375036810548 H 0.0 **** 0.06
34013 H 240.21512210207288 184.90013077124866 104.57143111087095 H 0.0 **** 0.06
34014 H 238.75991078266745 184.18685998140208 103.83533556909023 H 0.0 **** 0.06
34015 H 239.48757539927368 185.64933468974098 103.12916790371227 H 0.0 **** 0.06
34016 C 24.968983520059723 115.30212038169114 167.89695756228468 C 0.0 **** -0.24
34017 H 25.614735542301034 115.03503859769128 168.73325428699468 H 0.0 **** 0.06
34018 H 24.671274975526728 116.34695990625104 167.98669920324272 H 0.0 **** 0.06
34019 H 24.08178909575281 114.66838223616736 167.90642289376459 H 0.0 **** 0.06
34020 H 25.508459932015526 115.15714436460703 166.960464244683 H 0.0 **** 0.06
34021 C 186.86599160243426 66.01675512223412 21.17972388453302 C 0.0 **** -0.24
34022 H 186.1150753410913 66.57352563305591 20.61804430687711 H 0.0 **** 0.06
34023 H 186.3846470432743 65.4863962348179 22.001411437900302 H 0.0 **** 0.06
34024 H 187.6080568047472 66.70806377605487 21.577844644672425 H 0.0 **** 0.06
34025 H 187.35384374021396 65.29905464426673 20.520882571682208 H 0.0 **** 0.06
34026 C 221.3355780238923 228.5902098968559 87.2697013797573 C 0.0 **** -0.24
34027 H 220.36438269350754 229.02199280189168 87.026315410741 H 0.0 **** 0.06
34028 H 221.9019735369376 228.4323930316745 86.35095302164575 H 0.0 **** 0.06
34029 H 221.19295316479668 227.6368027659772 87.77762120974012 H 0.0 **** 0.06
34030 H 221.8826274859444 229.2707118500453 87.92174013701475 H 0.0 **** 0.06
34031 C 15.273459095842924 31.3691297536335 184.08172902706747 C 0.0 **** -0.24
34032 H 14.33587002627685 31.264372001842474 183.53504069991942 H 0.0 **** 0.06
34033 H 15.386341291500287 30.53438110619281 184.77360248071187 H 0.0 **** 0.06
34034 H 15.26594701738621 32.3050893419296 184.63870099153422 H 0.0 **** 0.06
34035 H 16.10597720896429 31.371937236312945 183.3766798807438 H 0.0 **** 0.06
34036 C 236.95467959845007 23.225671068370318 79.51524391710697 C 0.0 **** -0.24
34037 H 236.34870420634286 23.91161486571572 80.1065733457786 H 0.0 **** 0.06
34038 H 236.49431479249876 23.08351199613182 78.53745988487478 H 0.0 **** 0.06
34039 H 237.02256773801577 22.266916186321538 80.0288944221829 H 0.0 **** 0.06
34040 H 237.95507608928676 23.641285690100162 79.38939111142642 H 0.0 **** 0.06
34041 C 111.93083346713192 177.7914484804349 179.08114053234323 C 0.0 **** -0.24
34042 H 111.4241832243342 178.65837846927144 178.65913641161336 H 0.0 **** 0.06
34043 H 111.2572920872818 177.27333115516592 179.76402560260198 H 0.0 **** 0.06
34044 H 112.81852642189332 178.11775764016176 179.62288689187437 H 0.0 **** 0.06
34045 H 112.22454392268182 177.115506381079 178.2775865372231 H 0.0 **** 0.06
34046 C 97.5009962302232 8.880159278069101 12.05123741590674 C 0.0 **** -0.24
34047 H 97.89748915603408 9.813827239493406 11.649731392815823 H 0.0 **** 0.06
34048 H 97.49541596803402 8.92823108402601 13.140053988554627 H 0.0 **** 0.06
34049 H 98.128417417431 8.050786792107061 11.726707771516004 H 0.0 **** 0.06
34050 H 96.4844007998932 8.732070661603046 11.687637282682402 H 0.0 **** 0.06
34051 C 157.88036807308066 241.5394454768088 41.062359045906476 C 0.0 **** -0.24
34052 H 157.56908843636407 241.7154748919012 42.09213387757342 H 0.0 **** 0.06
34053 H 158.24001628364658 240.51473720517527 40.96226057285645 H 0.0 **** 0.06
34054 H 158.6802660703563 242.23185091730755 40.80184712777026 H 0.0 **** 0.06
34055 H 157.0330667617272 241.6943708532424 40.39499769200478 H 0.0 **** 0.06
34056 C 210.10653815974854 169.91042412063788 74.76890641820819 C 0.0 **** -0.24
34057 H 210.29284791768117 168.87066412017776 74.50338736584874 H 0.0 **** 0.06
34058 H 210.86386621544614 170.5453171461658 74.30754252195234 H 0.0 **** 0.06
34059 H 210.15089003984926 170.02137088997264 75.853209103128 H 0.0 **** 0.06
34060 H 209.11920552871223 170.2048455687733 74.41379256198692 H 0.0 **** 0.06
34061 C 45.17260092761889 87.17173469657803 157.8088656623247 C 0.0 **** -0.24
34062 H 45.52159178910884 87.97982649416312 158.4517300291404 H 0.0 **** 0.06
34063 H 44.71900657242146 87.59183408550226 156.9114252861347 H 0.0 **** 0.06
34064 H 44.43565660745949 86.57400238601926 158.3439793973997 H 0.0 **** 0.06
34065 H 46.016366672088424 86.54154321387057 157.5282313271914 H 0.0 **** 0.06
34066 C 176.84896566355226 82.19467227352226 224.41454176466914 C 0.0 **** -0.24
34067 H 177.84786566268733 81.77515820884545 224.5355513245084 H 0.0 **** 0.06
34068 H 176.8856959832564 83.27166305062465 224.5801899596441 H 0.0 **** 0.06
34069 H 176.17326379241933 81.73867997808921 225.1377454505615 H 0.0 **** 0.06
34070 H 176.49099311479247 81.99409982521007 223.40526583324964 H 0.0 **** 0.06
34071 C 195.9973764603349 47.11830244485378 165.4889354590429 C 0.0 **** -0.24
34072 H 195.17963368448113 47.783556396548136 165.21433122121545 H 0.0 **** 0.06
34073 H 196.20384278067542 47.217062503020486 166.5551463617703 H 0.0 **** 0.06
34074 H 196.8892044123482 47.38380811067685 164.9205454323769 H 0.0 **** 0.06
34075 H 195.7177000158288 46.08856269343113 165.26680779746255 H 0.0 **** 0.06
34076 C 59.75117562435298 247.93943627946186 38.36979685298516 C 0.0 **** -0.24
34077 H 59.511132772315335 247.80762256762947 39.42485616128542 H 0.0 **** 0.06
34078 H 60.232517919975635 247.03732906415365 37.99229753573272 H 0.0 **** 0.06
34079 H 60.42642708693012 248.78702784200988 38.25494229613574 H 0.0 **** 0.06
34080 H 58.835135248387616 248.1255912801919 37.810042527696766 H 0.0 **** 0.06
34081 C 184.7816677335059 233.88576206260518 8.725574293549755 C 0.0 **** -0.24
34082 H 184.60647953937422 232.8262223297278 8.540798175330423 H 0.0 **** 0.06
34083 H 184.08788164041226 234.47794681924267 8.128271483570671 H 0.0 **** 0.06
34084 H 185.80554104727983 234.13745258113443 8.449652409119011 H 0.0 **** 0.06
34085 H 184.6272147609905 234.10013612853044 9.782509294726907 H 0.0 **** 0.06
34086 C 181.58771115847074 191.35657227469596 40.15427808738474 C 0.0 **** -0.24
34087 H 182.46485088536318 190.7119393383424 40.102888976573325 H 0.0 **** 0.06
34088 H 181.81692842339928 192.31859656654927 39.69445063090009 H 0.0 **** 0.06
34089 H 181.31015861184707 191.5094905727696 41.198085140937025 H 0.0 **** 0.06
34090 H 180.75949762407245 190.8870359660221 39.623434827800764 H 0.0 **** 0.06
34091 C 8.930668424042523 199.99575274419695 179.62022585245404 C 0.0 **** -0.24
34092 H 9.813442468567274 200.458843365876 180.05969783058396 H 0.0 **** 0.06
34093 H 8.84145779963356 198.9696176237833 179.97941489179232 H 0.0 **** 0.06
34094 H 9.024406663662575 199.99339441929206 178.53378019801306 H 0.0 **** 0.06
34095 H 8.042900277818461 200.55898116210832 179.9069836454703 H 0.0 **** 0.06
34096 C 34.47193569510419 64.90846813875748 12.103905146246078 C 0.0 **** -0.24
34097 H 34.69543120943692 64.23860346052575 11.273273674413204 H 0.0 **** 0.06
34098 H 33.40702637370326 64.86040738919303 12.33266676050556 H 0.0 **** 0.06
34099 H 34.73949256568177 65.92926117473496 11.829554138834084 H 0.0 **** 0.06
34100 H 35.04669851330178 64.60465185524734 12.979597415990597 H 0.0 **** 0.06
34101 C 46.36104673622498 245.2641451183473 121.65485857328392 C 0.0 **** -0.24
34102 H 47.357660558221696 245.70213632078054 121.61034840293374 H 0.0 **** 0.06
34103 H 45.85227249342529 245.4224800999503 120.70405871476984 H 0.0 **** 0.06
34104 H 45.791225736830626 245.73689228837486 122.45513584777413 H 0.0 **** 0.06
34105 H 46.44202934730747 244.19511967488506 121.84988159812676 H 0.0 **** 0.06
34106 C 17.391295258940502 59.13343126301274 218.25610743456923 C 0.0 **** -0.24
34107 H 16.465171888148646 58.55871111287357 218.2226286331936 H 0.0 **** 0.06
34108 H 18.224145597658136 58.49593470544184 217.96060106533113 H 0.0 **** 0.06
34109 H 17.553571132310864 59.499813216488405 219.26980185329793 H 0.0 **** 0.06
34110 H 17.31930057995507 59.97824926028707 217.57152151488089 H 0.0 **** 0.06
34111 C 169.21758197899018 217.54727924257745 119.78442844360038 C 0.0 **** -0.24
34112 H 169.81889062298248 218.12707931678463 119.08572082482664 H 0.0 **** 0.06
34113 H 169.87388856652024 217.0225837076519 120.47969374609053 H 0.0 **** 0.06
34114 H 168.61694404172468 216.8233318904774 119.23378802695217 H 0.0 **** 0.06
34115 H 168.55989619091895 218.2155239119723 120.3399741495914 H 0.0 **** 0.06
34116 C 25.091735438758434 5.132165927995089 228.41926950284503 C 0.0 **** -0.24
34117 H 26.075616603647205 4.682242754945577 228.28453804518983 H 0.0 **** 0.06
34118 H 24.928579613690516 5.886004267728907 227.64959457441734 H 0.0 **** 0.06
34119 H 25.036452530192975 5.5978230307881915 229.4028714673184 H 0.0 **** 0.06
34120 H 24.325369708787463 4.359416387990976 228.33984462422507 H 0.0 **** 0.06
34121 C 162.17311249067404 220.3313514416613 246.3096318703602 C 0.0 **** -0.24
34122 H 161.30089055644788 219.69538108126181 246.46230200967256 H 0.0 **** 0.06
34123 H 162.26409879047844 220.57339085289348 245.25018626192093 H 0.0 **** 0.06
34124 H 163.06844208418704 219.80420856245826 246.64016156522985 H 0.0 **** 0.06
34125 H 162.05802122807833 221.24967146756512 246.88522799445525 H 0.0 **** 0.06
34126 C 45.54930666260198 83.19877074750084 180.87662730458396 C 0.0 **** -0.24
34127 H 46.559750392645114 83.52539630667334 181.12403140565888 H 0.0 **** 0.06
34128 H 45.44417530496466 82.13773201885627 181.10608927681915 H 0.0 **** 0.06
34129 H 45.36418989734365 83.36127153234807 179.81561136176924 H 0.0 **** 0.06
34130 H 44.82930893560304 83.77086648185474 181.46299692069817 H 0.0 **** 0.06
34131 C 157.49346144976778 182.70983207283155 30.80497263057194 C 0.0 **** -0.24
34132 H 158.57429060746705 182.83827829069656 30.7402155642246 H 0.0 **** 0.06
34133 H 157.06491351856488 182.7295680110429 29.802761706648283 H 0.0 **** 0.06
34134 H 157.0667167685208 183.51764568293925 31.399137349770257 H 0.0 **** 0.06
34135 H 157.26999230745656 181.7530545102927 31.277437245124275 H 0.0 **** 0.06
34136 C 197.858089410851 146.09508610637388 59.21979914964001 C 0.0 **** -0.24
34137 H 198.0195700612429 146.93845212833176 58.549065735331624 H 0.0 **** 0.06
34138 H 197.0648360702845 145.461042992386 58.820893072237595 H 0.0 **** 0.06
34139 H 197.56879251580213 146.46334468824907 60.204045303764275 H 0.0 **** 0.06
34140 H 198.77782144958758 145.5166904018572 59.30359621890551 H 0.0 **** 0.06
34141 C 113.97875502500281 64.3243878274819 91.81217168477286 C 0.0 **** -0.24
34142 H 114.73572104553531 64.56661975359722 91.06565797753154 H 0.0 **** 0.06
34143 H 113.13087427731767 63.84276852876141 91.3250478213597 H 0.0 **** 0.06
34144 H 113.64602668547957 65.23903345420845 92.30123996504628 H 0.0 **** 0.06
34145 H 114.40450670645848 63.649089780955364 92.55399283448708 H 0.0 **** 0.06
34146 C 43.07523067309688 160.9757366399616 84.26101444400274 C 0.0 **** -0.24
34147 H 42.887685900332684 160.162720195827 84.96173463054072 H 0.0 **** 0.06
34148 H 44.145374592794866 161.1793392593431 84.21767234168973 H 0.0 **** 0.06
34149 H 42.54903781299967 161.87010817879911 84.59466574934035 H 0.0 **** 0.06
34150 H 42.71804833669907 160.69199044411002 83.27169678436562 H 0.0 **** 0.06
34151 C 94.8366304182054 45.03414084866506 59.2325588873166 C 0.0 **** -0.24
34152 H 94.6614849914474 45.36471327592611 60.256393112047846 H 0.0 **** 0.06
34153 H 95.10301991650928 43.97618151712126 59.23406815682384 H 0.0 **** 0.06
34154 H 95.65055491406022 45.613538371758096 58.7980534405128 H 0.0 **** 0.06
34155 H 93.93126865477944 45.179237941038565 58.64408673865921 H 0.0 **** 0.06
34156 C 90.88737176093181 246.26109448252566 11.557748197793927 C 0.0 **** -0.24
34157 H 90.10706053222196 246.83830519579953 12.053364726878755 H 0.0 **** 0.06
34158 H 91.86043704523902 246.5465020167915 11.958662241070641 H 0.0 **** 0.06
34159 H 90.8615369267072 246.46037079549401 10.487072678289763 H 0.0 **** 0.06
34160 H 90.7186178164599 245.19812224057694 11.734232480576708 H 0.0 **** 0.06
34161 C 2.80567456200572 212.86532081035153 2.5166197244189306 C 0.0 **** -0.24
34162 H 1.9088431148158094 213.399428257223 2.8302997497879545 H 0.0 **** 0.06
34163 H 3.1481135565256437 212.22368958746793 3.3287856449329922 H 0.0 **** 0.06
34164 H 3.586835566474477 213.58232877989732 2.2653974738785223 H 0.0 **** 0.06
34165 H 2.577437821515616 212.2549871888145 1.6423466331925312 H 0.0 **** 0.06
34166 C 209.4741523834057 83.29713026128314 218.04105608575733 C 0.0 **** -0.24
34167 H 209.1729931756594 84.00997657294187 218.80899803751038 H 0.0 **** 0.06
34168 H 208.80693907617166 82.43484992432738 218.06411260775215 H 0.0 **** 0.06
34169 H 210.49693802329404 82.97131871091625 218.23095590017596 H 0.0 **** 0.06
34170 H 209.42015327579554 83.77296103456092 217.0622758585241 H 0.0 **** 0.06
34171 C 37.808682157563325 78.42713902839557 205.4523656135774 C 0.0 **** -0.24
34172 H 37.917294184967474 79.1794664531914 204.67092115245043 H 0.0 **** 0.06
34173 H 36.938315532064536 78.66158081550921 206.06392226601972 H 0.0 **** 0.06
34174 H 38.702424413613116 78.42208930109823 206.07705742414697 H 0.0 **** 0.06
34175 H 37.680084178860895 77.44556142066821 204.9959836123775 H 0.0 **** 0.06
34176 C 235.15147526455684 214.12431619048579 36.52665842596477 C 0.0 **** -0.24
34177 H 236.0837695305613 213.63763860216412 36.814161297830964 H 0.0 **** 0.06
34178 H 235.29116795673193 214.64392224975697 35.5782681728447 H 0.0 **** 0.06
34179 H 234.86404086363416 214.8412661776398 37.29456058944689 H 0.0 **** 0.06
34180 H 234.3688447276146 213.37394058018074 36.41861469947861 H 0.0 **** 0.06
34181 C 240.66470778816222 41.345053217964036 25.70135242893153 C 0.0 **** -0.24
34182 H 239.73440764609228 40.78853570073986 25.583354643397996 H 0.0 **** 0.06
34183 H 241.33973608447718 41.10119365908302 24.88119337073499 H 0.0 **** 0.06
34184 H 241.13063271423778 41.07581957290354 26.649243654954233 H 0.0 **** 0.06
34185 H 240.45123927833512 42.41368017248551 25.691293011992684 H 0.0 **** 0.06
34186 C 73.76958004426118 7.767429045590944 185.5404778904359 C 0.0 **** -0.24
34187 H 73.22808454808566 8.54322751522264 186.08282090185952 H 0.0 **** 0.06
34188 H 73.10860071574032 7.310903263247241 184.8040635358535 H 0.0 **** 0.06
34189 H 74.11383430017978 7.008109895042338 186.24192496201553 H 0.0 **** 0.06
34190 H 74.62720876844688 8.210550107700072 185.03419608569294 H 0.0 **** 0.06
34191 C 75.64375811864286 135.33589229360467 186.68932648324505 C 0.0 **** -0.24
34192 H 75.40535204711753 135.36147460272792 185.62532146721333 H 0.0 **** 0.06
34193 H 74.93711851579334 134.68406313383414 187.20344786140964 H 0.0 **** 0.06
34194 H 75.57758869504644 136.34214748430466 187.10115855138173 H 0.0 **** 0.06
34195 H 76.65577212466746 134.95386166396753 186.82531112811068 H 0.0 **** 0.06
34196 C 117.10493505829709 5.422936717674048 156.4107602049772 C 0.0 **** -0.24
34197 H 117.52837934564673 6.398971467188375 156.64663234674265 H 0.0 **** 0.06
34198 H 116.98089454730072 4.848817325857368 157.32898590978297 H 0.0 **** 0.06
34199 H 117.77548320987788 4.8894729821649605 155.73655386053514 H 0.0 **** 0.06
34200 H 116.13557131444603 5.5534073585102135 155.92964700251275 H 0.0 **** 0.06
34201 C 110.85909786520787 71.09462962970835 34.02558215309537 C 0.0 **** -0.24
34202 H 110.0592348754513 70.79773993909654 34.70423101814882 H 0.0 **** 0.06
34203 H 111.44380034194774 70.21776337640486 33.74767181571886 H 0.0 **** 0.06
34204 H 111.50481953106123 71.81964125837791 34.520697527569695 H 0.0 **** 0.06
34205 H 110.42770743014023 71.54300945674694 33.13015186523302 H 0.0 **** 0.06
34206 C 85.64439706574345 126.36227255765061 172.4092392883186 C 0.0 **** -0.24
34207 H 84.88546263606824 126.9718739530905 172.90035256023813 H 0.0 **** 0.06
34208 H 86.56343877760241 126.38680667478584 172.99517442334954 H 0.0 **** 0.06
34209 H 85.8382629858913 126.75695377993364 171.41194479551046 H 0.0 **** 0.06
34210 H 85.2904579307212 125.33474248744486 172.33156945476875 H 0.0 **** 0.06
34211 C 144.78530905456302 4.790436241154325 175.44252999995953 C 0.0 **** -0.24
34212 H 145.6515290357422 4.304166596638652 175.89052814749004 H 0.0 **** 0.06
34213 H 145.04384357850435 5.81590606563806 175.17395574208672 H 0.0 **** 0.06
34214 H 143.9621912364778 4.7981073849788345 176.15691349531266 H 0.0 **** 0.06
34215 H 144.48516497935972 4.245343555266999 174.54682297162475 H 0.0 **** 0.06
34216 C 56.7134261620657 198.69637132613877 243.19406308250626 C 0.0 **** -0.24
34217 H 55.867903486597896 198.61254727062413 243.87737963388076 H 0.0 **** 0.06
34218 H 56.34646114884609 198.8263274206494 242.1758780977975 H 0.0 **** 0.06
34219 H 57.31736991781938 197.79068025297266 243.25132730243513 H 0.0 **** 0.06
34220 H 57.32222648095521 199.557048578294 243.47358664566292 H 0.0 **** 0.06
34221 C 39.68901556294901 210.4873430612167 40.47591326687703 C 0.0 **** -0.24
34222 H 39.788720380650744 211.3403491698041 41.1465346870654 H 0.0 **** 0.06
34223 H 40.669913851993755 210.0435962353191 40.30486686288418 H 0.0 **** 0.06
34224 H 39.26995677813679 210.82033265762516 39.52611684789714 H 0.0 **** 0.06
34225 H 39.027143917106656 209.74710045383503 40.925203121731215 H 0.0 **** 0.06
34226 C 169.28132523758336 228.74487917636375 61.8143727385374 C 0.0 **** -0.24
34227 H 168.23736353332964 229.01365239571615 61.977303677627305 H 0.0 **** 0.06
34228 H 169.90554222716932 229.63283887140898 61.92179859251232 H 0.0 **** 0.06
34229 H 169.39854391100351 228.33782241822016 60.810296475270746 H 0.0 **** 0.06
34230 H 169.58343093981392 227.99739280500074 62.54792426252877 H 0.0 **** 0.06
34231 C 84.25292467611806 151.80239185997928 3.229685550104648 C 0.0 **** -0.24
34232 H 83.36000737935723 152.2860957106383 3.624491636314957 H 0.0 **** 0.06
34233 H 84.17266089196568 150.7237886350332 3.367636209744518 H 0.0 **** 0.06
34234 H 85.13017935102795 152.17316154634315 3.75854340508522 H 0.0 **** 0.06
34235 H 84.34722748303182 152.02641801175997 2.167476613109187 H 0.0 **** 0.06
34236 C 174.88543864721714 174.19860288539303 1.0686232757812206 C 0.0 **** -0.24
34237 H 173.86788683448032 174.20399388904164 1.45766929082518 H 0.0 **** 0.06
34238 H 175.160919060511 173.18273334100445 0.7862898297239269 H 0.0 **** 0.06
34239 H 175.56972074978307 174.56123111905453 1.8352387797118297 H 0.0 **** 0.06
34240 H 174.94356451935147 174.84744460185243 0.1943444957531426 H 0.0 **** 0.06
34241 C 75.03813875895798 237.73156162111206 174.2338621521566 C 0.0 **** -0.24
34242 H 75.61389258848047 238.51190691385636 173.73616714392563 H 0.0 **** 0.06
34243 H 75.22458353275914 237.7731985449899 175.30751027551156 H 0.0 **** 0.06
34244 H 75.33927172542826 236.75675968489776 173.84970763307825 H 0.0 **** 0.06
34245 H 73.97603196745871 237.8854748615127 174.04261506275915 H 0.0 **** 0.06
34246 C 11.427775300687273 193.73004054341646 14.962147798662016 C 0.0 **** -0.24
34247 H 12.008142126871547 192.82250838904295 15.124749437605871 H 0.0 **** 0.06
34248 H 10.610538440296096 193.51990835887068 14.271574155895493 H 0.0 **** 0.06
34249 H 12.071098093651159 194.50313375887526 14.540047989461286 H 0.0 **** 0.06
34250 H 11.021089541709927 194.07698743010985 15.912768718581987 H 0.0 **** 0.06
34251 C 224.7168429173561 211.34993366811466 63.3875941802813 C 0.0 **** -0.24
34252 H 224.58083052098968 210.40379129131628 62.86478657771548 H 0.0 **** 0.06
34253 H 225.67026469123118 211.34043390284765 63.91480688349415 H 0.0 **** 0.06
34254 H 223.90569354422234 211.48898191928032 64.1035263449769 H 0.0 **** 0.06
34255 H 224.70785581924963 212.16770698775957 62.666174323146095 H 0.0 **** 0.06
34256 C 175.26107688028813 187.46642070702853 244.55827042739716 C 0.0 **** -0.24
34257 H 174.605353888486 186.66582296353607 244.9015009423054 H 0.0 **** 0.06
34258 H 174.6605828113605 188.26682516948574 244.12424836177394 H 0.0 **** 0.06
34259 H 175.94639360629228 187.0770542131617 243.80537449321196 H 0.0 **** 0.06
34260 H 175.83128566212818 187.85525958215743 245.4019124385574 H 0.0 **** 0.06
34261 C 209.29910771446526 39.82699152177709 178.96126157859393 C 0.0 **** -0.24
34262 H 208.63143262304544 40.63972588985628 178.67601189091397 H 0.0 **** 0.06
34263 H 210.3068236703726 40.044035430948384 178.60698617324755 H 0.0 **** 0.06
34264 H 208.94862104422606 38.896293976589206 178.5153616569612 H 0.0 **** 0.06
34265 H 209.30824795050782 39.72834391688146 180.04701508688532 H 0.0 **** 0.06
34266 C 195.3272789289298 203.19636040448736 129.87286245928053 C 0.0 **** -0.24
34267 H 196.0523636986867 203.72030531256806 130.49605294715528 H 0.0 **** 0.06
34268 H 195.10086485088902 202.22627939283743 130.3174882387329 H 0.0 **** 0.06
34269 H 195.74348008509548 203.05133890041324 128.8760024245379 H 0.0 **** 0.06
34270 H 194.41399995339071 203.78697099382643 129.8033771370815 H 0.0 **** 0.06
34271 C 16.197373234696016 240.91741580731124 101.3191677548835 C 0.0 **** -0.24
34272 H 15.79951944947365 241.848476387625 100.91533594363392 H 0.0 **** 0.06
34273 H 16.678825672964223 240.35240403679478 100.5203524896159 H 0.0 **** 0.06
34274 H 15.38353568773229 240.32722668558205 101.7419783858536 H 0.0 **** 0.06
34275 H 16.92660800767922 241.14114669646898 102.097048653748 H 0.0 **** 0.06
34276 C 65.33969017439912 241.3844055870366 247.6883409283588 C 0.0 **** -0.24
34277 H 64.63156216597255 240.6214889701228 247.36535869127658 H 0.0 **** 0.06
34278 H 65.36997499339085 242.18694921345497 246.95125536460193 H 0.0 **** 0.06
34279 H 66.33153261714975 240.94207611294013 247.78600249888026 H 0.0 **** 0.06
34280 H 65.02551397353895 241.7866953807322 248.65208820743518 H 0.0 **** 0.06
34281 C 29.62409020304912 235.8590874764659 210.4161543837658 C 0.0 **** -0.24
34282 H 30.248336047982235 236.21252906917582 209.5954664193285 H 0.0 **** 0.06
34283 H 29.62730086354324 236.59671227001004 211.2188728450701 H 0.0 **** 0.06
34284 H 30.017424826983785 234.91376797037722 210.7899397147089 H 0.0 **** 0.06
34285 H 28.604453496034296 235.71269596735158 210.06084033482927 H 0.0 **** 0.06
34286 C 98.47493016586435 96.87528970608662 131.86649621981005 C 0.0 **** -0.24
34287 H 97.55657415664794 96.33013781731046 132.08481073785745 H 0.0 **** 0.06
34288 H 98.27904768438978 97.94649079047821 131.90674361800555 H 0.0 **** 0.06
34289 H 98.82738958123394 96.60694209344126 130.87063102450534 H 0.0 **** 0.06
34290 H 99.23456674243184 96.61529058602619 132.6034373942129 H 0.0 **** 0.06
34291 C 52.31078386527875 44.60524575644246 120.84937648139669 C 0.0 **** -0.24
34292 H 52.348580536824954 44.47084775879341 119.76783074962904 H 0.0 **** 0.06
34293 H 51.993491508919604 45.62315086897428 121.07722800664666 H 0.0 **** 0.06
34294 H 53.300022359283844 44.43019572257717 121.27085393602184 H 0.0 **** 0.06
34295 H 51.60171611717949 43.89775149493636 121.27865769782127 H 0.0 **** 0.06
34296 C 104.12471921125169 127.54138222277533 118.80925979678679 C 0.0 **** -0.24
34297 H 103.08736335106494 127.71268063981177 119.09788801280067 H 0.0 **** 0.06
34298 H 104.41215399053911 126.52443121898779 119.07899575444074 H 0.0 **** 0.06
34299 H 104.76766870714886 128.25143693673422 119.32991690396176 H 0.0 **** 0.06
34300 H 104.22945859680706 127.67585007842115 117.73302068833317 H 0.0 **** 0.06
34301 C 215.03665273912972 145.96154743631337 131.56654930236306 C 0.0 **** -0.24
34302 H 215.13886749326176 146.85483694213812 132.1831817513967 H 0.0 **** 0.06
34303 H 216.01852653432837 145.51153615579696 131.4147919911503 H 0.0 **** 0.06
34304 H 214.60810527645407 146.23344267740902 130.6028291137393 H 0.0 **** 0.06
34305 H 214.38345072660115 145.24801042350035 132.06759682415642 H 0.0 **** 0.06
34306 C 110.74178309905912 141.01668113485098 159.94856243643957 C 0.0 **** -0.24
34307 H 109.77773449058103 140.86940665535312 159.46024584737236 H 0.0 **** 0.06
34308 H 111.26160574159522 140.0614051995842 160.02105296051963 H 0.0 **** 0.06
34309 H 110.58312924766616 141.42107683457706 160.9484377516622 H 0.0 **** 0.06
34310 H 111.34127981788572 141.71420825793743 159.36491429675556 H 0.0 **** 0.06
34311 C 66.11323658375863 159.61983027609628 4.711222878286961 C 0.0 **** -0.24
34312 H 65.98746171692295 159.1350426803109 5.6801001941045115 H 0.0 **** 0.06
34313 H 65.26213854462847 160.2738631153035 4.5195075954675445 H 0.0 **** 0.06
34314 H 66.17335248104055 158.86221759968416 3.930913539226623 H 0.0 **** 0.06
34315 H 67.03052023608697 160.2089850505811 4.717216730937793 H 0.0 **** 0.06
34316 C 26.16725940900639 149.3308480381364 106.62075511716247 C 0.0 **** -0.24
34317 H 27.145041245534145 149.45293844174495 106.15354724726254 H 0.0 **** 0.06
34318 H 26.21377049654413 148.52672499340568 107.35550910453611 H 0.0 **** 0.06
34319 H 25.429178705073724 149.08499790208683 105.85764297028214 H 0.0 **** 0.06
34320 H 25.884213676563917 150.2591653958155 107.11543536860444 H 0.0 **** 0.06
34321 C 193.4277002259579 230.0510532316072 139.98321597428256 C 0.0 **** -0.24
34322 H 194.44307709892422 230.41158078197822 140.14312921679746 H 0.0 **** 0.06
34323 H 193.16302817528043 229.34821866182645 140.77311460122803 H 0.0 **** 0.06
34324 H 193.3678562519923 229.55132858758867 139.01635944503934 H 0.0 **** 0.06
34325 H 192.7357898078383 230.89403837617746 139.99926599535345 H 0.0 **** 0.06
34326 C 32.17355060723003 127.79330755866965 149.48835997697208 C 0.0 **** -0.24
34327 H 31.942251843928958 128.17253451100956 148.49237785797808 H 0.0 **** 0.06
34328 H 31.451900137527502 127.02295678170552 149.75995314311237 H 0.0 **** 0.06
34329 H 32.12209079091427 128.60950854942342 150.2078044729475 H 0.0 **** 0.06
34330 H 33.17648564280245 127.36785008402862 149.49003598230593 H 0.0 **** 0.06
34331 C 73.05964025753352 120.1267092075069 77.84114879967856 C 0.0 **** -0.24
34332 H 72.61476547201912 119.88101547447374 76.87681556633277 H 0.0 **** 0.06
34333 H 74.04758950591949 120.5597355960266 77.68565926655839 H 0.0 **** 0.06
34334 H 73.14770526778028 119.22190599372638 78.44162632348477 H 0.0 **** 0.06
34335 H 72.42550991008497 120.84620521096645 78.35951814329297 H 0.0 **** 0.06
34336 C 105.15711601968184 213.02522064021957 148.79368487738114 C 0.0 **** -0.24
34337 H 105.52227795712867 214.04208403130934 148.6534238283073 H 0.0 **** 0.06
34338 H 105.83527836519198 212.32523290569355 148.30541694320036 H 0.0 **** 0.06
34339 H 104.16244794353685 212.9333757204919 148.35578133519468 H 0.0 **** 0.06
34340 H 105.10632220097938 212.80124058935377 149.85954579734425 H 0.0 **** 0.06
34341 C 44.82773333449704 187.80313937210664 240.89341186941726 C 0.0 **** -0.24
34342 H 45.58406456329662 188.52508424825817 241.19912615361426 H 0.0 **** 0.06
34343 H 43.83604088696879 188.2081043307656 241.0945661360559 H 0.0 **** 0.06
34344 H 44.962135346118075 186.87701058028907 241.45247191223316 H 0.0 **** 0.06
34345 H 44.928829621014586 187.60095538927715 239.82736930855523 H 0.0 **** 0.06
34346 C 90.91535405953766 241.3643562543129 211.32015600950217 C 0.0 **** -0.24
34347 H 91.54617843731603 241.28839178630707 210.4349720936657 H 0.0 **** 0.06
34348 H 90.43895577098155 240.40212015561198 211.5110484967002 H 0.0 **** 0.06
34349 H 90.15021927005793 242.12242033504728 211.15727826989257 H 0.0 **** 0.06
34350 H 91.52721208542485 241.64322637762984 212.17876581126012 H 0.0 **** 0.06
34351 C 53.89772022652542 207.85099317696256 142.66157857689416 C 0.0 **** -0.24
34352 H 53.899023996314895 207.50272196616214 143.69426392557136 H 0.0 **** 0.06
34353 H 53.47436819724325 207.07910457403912 142.0188915512995 H 0.0 **** 0.06
34354 H 54.921062548851154 208.06264780689338 142.34912635155007 H 0.0 **** 0.06
34355 H 53.29923922093302 208.7586212535557 142.5845959324006 H 0.0 **** 0.06
34356 C 23.591890304823636 27.977955939003422 30.670179021220278 C 0.0 **** -0.24
34357 H 22.610497353811326 27.939656570922978 31.143513584124037 H 0.0 **** 0.06
34358 H 24.105783881765063 27.028406393846637 30.82233890269238 H 0.0 **** 0.06
34359 H 24.177751808152067 28.78367262401335 31.11267138560548 H 0.0 **** 0.06
34360 H 23.47240018655455 28.15938546455773 29.60170861219271 H 0.0 **** 0.06
34361 C 86.73696890942517 104.24371638457299 173.51059578646468 C 0.0 **** -0.24
34362 H 87.47217729597969 103.49675713543277 173.21087912104005 H 0.0 **** 0.06
34363 H 86.44135136685136 104.83098671846906 172.64080880142328 H 0.0 **** 0.06
34364 H 87.1725138024936 104.9009354962079 174.26291038137552 H 0.0 **** 0.06
34365 H 85.86189391632564 103.74419105674582 173.92677696831146 H 0.0 **** 0.06
34366 C 170.91278236972002 82.11776483574906 93.98458301720666 C 0.0 **** -0.24
34367 H 171.59298226082902 82.14601609986255 94.83658686444528 H 0.0 **** 0.06
34368 H 169.92416581278545 81.80327753189843 94.31985695548013 H 0.0 **** 0.06
34369 H 171.28815002752927 81.41098213941936 93.24430069661577 H 0.0 **** 0.06
34370 H 170.84733301443404 83.10958700103939 93.53873356899223 H 0.0 **** 0.06
34371 C 99.17500356814756 13.99395627074972 218.17544677159225 C 0.0 **** -0.24
34372 H 99.49775778869397 14.843041654018606 218.77795842660228 H 0.0 **** 0.06
34373 H 99.70008325837625 13.095739567057905 218.50211120487324 H 0.0 **** 0.06
34374 H 99.4018570842336 14.18583408740355 217.1268472521294 H 0.0 **** 0.06
34375 H 98.1007573211439 13.851996380534302 218.29443820618195 H 0.0 **** 0.06
34376 C 123.20786631569942 111.86468531784814 162.01946310483217 C 0.0 **** -0.24
34377 H 123.74260973448267 111.83116577840002 162.9690432710951 H 0.0 **** 0.06
34378 H 123.86753451914512 111.52504730665603 161.22011870780332 H 0.0 **** 0.06
34379 H 122.88734469912663 112.88686596601059 161.8179161229207 H 0.0 **** 0.06
34380 H 122.33494968114309 111.21365585007689 162.07093886480519 H 0.0 **** 0.06
34381 C 27.949294384558215 21.373659475301764 226.33727355690468 C 0.0 **** -0.24
34382 H 28.422904263347988 20.900415588202776 225.47678853035717 H 0.0 **** 0.06
34383 H 28.671763754230227 21.45686505840925 227.14920976751654 H 0.0 **** 0.06
34384 H 27.103353032610215 20.767672032538457 226.6635250377787 H 0.0 **** 0.06
34385 H 27.598891964537046 22.366517847129586 226.05862333167846 H 0.0 **** 0.06
34386 C 174.57005732926433 142.7685597556842 106.76252283641904 C 0.0 **** -0.24
34387 H 173.57041999402847 142.7432840366457 107.19807182313122 H 0.0 **** 0.06
34388 H 174.50785264207855 142.53822652396113 105.69868884852809 H 0.0 **** 0.06
34389 H 175.20043974947768 142.03146143172515 107.2583712196481 H 0.0 **** 0.06
34390 H 174.99823433704438 143.7615923547706 106.89461471535222 H 0.0 **** 0.06
34391 C 83.1931780641153 231.17001971233773 63.8881740366526 C 0.0 **** -0.24
34392 H 83.09532363602062 231.43156356569384 64.94152008000276 H 0.0 **** 0.06
34393 H 84.18293207342793 231.45695997219488 63.53307847659431 H 0.0 **** 0.06
34394 H 82.4331305181708 231.69657916703548 63.310720626911944 H 0.0 **** 0.06
34395 H 83.06060207480272 230.09433351475448 63.76762781642762 H 0.0 **** 0.06
34396 C 75.62667706709954 14.749096171026878 194.22176407249736 C 0.0 **** -0.24
34397 H 74.6258469460825 14.96109290434201 194.59649732765945 H 0.0 **** 0.06
34398 H 76.23593675372601 14.336342105991633 195.0264113828399 H 0.0 **** 0.06
34399 H 76.08128446860908 15.669141783050819 193.85647824390517 H 0.0 **** 0.06
34400 H 75.56329963121445 14.026842297107862 193.4073702985202 H 0.0 **** 0.06
34401 C 56.6348450699185 90.80773608924898 174.13422613597257 C 0.0 **** -0.24
34402 H 55.987777282800124 91.43688014640216 173.52271766769726 H 0.0 **** 0.06
34403 H 57.67603648107999 90.99678926752486 173.87259297328703 H 0.0 **** 0.06
34404 H 56.39746912393744 89.75955151578674 173.95353212597757 H 0.0 **** 0.06
34405 H 56.47730792819766 91.03980296870625 175.18783307781504 H 0.0 **** 0.06
34406 C 123.78959945011033 183.45529422173593 30.947438224359217 C 0.0 **** -0.24
34407 H 122.91754525370612 182.80430380046948 30.883285892106215 H 0.0 **** 0.06
34408 H 123.66611961440324 184.14584920230783 31.782408361300412 H 0.0 **** 0.06
34409 H 123.89057562134332 184.01875865523232 30.02078769842919 H 0.0 **** 0.06
34410 H 124.68294232126877 182.85002680739927 31.10485630254837 H 0.0 **** 0.06
34411 C 172.41391026595875 5.682331437408266 123.91269739627003 C 0.0 **** -0.24
34412 H 172.42134905685714 6.244533569734415 122.97811352621068 H 0.0 **** 0.06
34413 H 172.0101228917031 4.686615000215255 123.73374744034777 H 0.0 **** 0.06
34414 H 171.79306803177806 6.201168603925282 124.6429709630483 H 0.0 **** 0.06
34415 H 173.43093562938793 5.599652227046107 124.29496578315045 H 0.0 **** 0.06
34416 C 93.26160361443644 75.67099388381658 98.50788201547886 C 0.0 **** -0.24
34417 H 92.70924314960448 74.73146272059091 98.52769817941129 H 0.0 **** 0.06
34418 H 93.86879627690311 75.75348580260996 99.41043325632535 H 0.0 **** 0.06
34419 H 92.56000740755971 76.50347271617213 98.46453093898381 H 0.0 **** 0.06
34420 H 93.90852886913191 75.69360807174797 97.63091172956496 H 0.0 **** 0.06
34421 C 3.547700074949688 30.812429530290046 7.870827910751871 C 0.0 **** -0.24
34422 H 3.8976129221384355 31.635579202157857 7.247277437086041 H 0.0 **** 0.06
34423 H 4.3935622647842365 30.186150720183917 8.152809414214474 H 0.0 **** 0.06
34424 H 2.823337343138718 30.218619528767277 7.3147614862004815 H 0.0 **** 0.06
34425 H 3.0760256074005667 31.213483409800318 8.768444510721153 H 0.0 **** 0.06
34426 C 219.46996734363904 218.54870110507284 246.39022631286173 C 0.0 **** -0.24
34427 H 219.74293822988582 219.41985255146676 245.7942576672338 H 0.0 **** 0.06
34428 H 220.0258586337996 217.67948859123157 246.0375705937293 H 0.0 **** 0.06
34429 H 218.40090990221285 218.360478924013 246.29089773050748 H 0.0 **** 0.06
34430 H 219.71136782888692 218.7345216590292 247.43635349804237 H 0.0 **** 0.06
34431 C 51.03669114161707 93.17225604624474 182.97024802601229 C 0.0 **** -0.24
34432 H 50.58969070684111 93.09245274014467 181.97875035893026 H 0.0 **** 0.06
34433 H 51.92874382803299 93.79598325325088 182.91759881212568 H 0.0 **** 0.06
34434 H 51.307524124221686 92.17892839957901 183.32709427303433 H 0.0 **** 0.06
34435 H 50.31833870865697 93.62215168500319 183.65591432235186 H 0.0 **** 0.06
34436 C 34.22806659198312 201.11384698886084 44.56285462737273 C 0.0 **** -0.24
34437 H 34.52947281238539 201.48060665859174 43.5821114421411 H 0.0 **** 0.06
34438 H 33.37848805918779 201.69405271645084 44.92327688184662 H 0.0 **** 0.06
34439 H 35.05955281585247 201.2153929648364 45.25929172412236 H 0.0 **** 0.06
34440 H 33.944354987238086 200.06404846182497 44.486308234939884 H 0.0 **** 0.06
34441 C 179.1439694988702 158.5073269987597 21.291410672463655 C 0.0 **** -0.24
34442 H 179.99866691669325 158.39732115833584 21.958745376007784 H 0.0 **** 0.06
34443 H 178.22164274350345 158.40559311435032 21.863050540989633 H 0.0 **** 0.06
34444 H 179.18231871472793 157.735278403293 20.52272941483065 H 0.0 **** 0.06
34445 H 179.17422550082904 159.48968990837207 20.82124341863377 H 0.0 **** 0.06
34446 C 163.446684841882 218.43653742997594 91.6185174716885 C 0.0 **** -0.24
34447 H 162.54405793960032 217.881118205539 91.36491596543277 H 0.0 **** 0.06
34448 H 164.3182917721084 217.7989333048332 91.4679488305816 H 0.0 **** 0.06
34449 H 163.39947668399225 218.7489063407404 92.66124591791382 H 0.0 **** 0.06
34450 H 163.52477255071602 219.31506614317422 90.97875019352963 H 0.0 **** 0.06
34451 C 219.72688937119355 136.9346165351946 65.8788201530509 C 0.0 **** -0.24
34452 H 218.68334289249577 136.7445017110676 66.13166927580156 H 0.0 **** 0.06
34453 H 220.30515719649503 137.06134420972333 66.79477866780152 H 0.0 **** 0.06
34454 H 219.79555084842605 137.84054870720436 65.2777926526118 H 0.0 **** 0.06
34455 H 220.12257258461148 136.09117469658457 65.31219043482898 H 0.0 **** 0.06
34456 C 153.63156386528257 242.60526929986582 54.22685715320537 C 0.0 **** -0.24
34457 H 154.54631162445986 242.0217139893249 54.3229055280857 H 0.0 **** 0.06
34458 H 153.32660364187538 242.63397713301657 53.18013908965301 H 0.0 **** 0.06
34459 H 153.8094368852267 243.62044189796399 54.58176750049208 H 0.0 **** 0.06
34460 H 152.84263407330934 242.1455537157485 54.822748872603995 H 0.0 **** 0.06
34461 C 219.66587781013902 209.53254430443505 217.7841546589752 C 0.0 **** -0.24
34462 H 219.56518005857754 208.95689858183306 218.70394024714153 H 0.0 **** 0.06
34463 H 220.72008840686988 209.60759163140784 217.51550340575076 H 0.0 **** 0.06
34464 H 219.25742340810547 210.53251141836955 217.93393901160627 H 0.0 **** 0.06
34465 H 219.12148245076986 209.03379400977923 216.9821506642644 H 0.0 **** 0.06
34466 C 15.083841486426735 185.06942722831522 202.6641343039431 C 0.0 **** -0.24
34467 H 15.989357448764196 184.580900319808 202.30318572249388 H 0.0 **** 0.06
34468 H 14.351391908774275 185.11892347526475 201.85740118646527 H 0.0 **** 0.06
34469 H 15.324112392575017 186.0786954070925 202.99952096313973 H 0.0 **** 0.06
34470 H 14.670504195593566 184.4991897110957 203.49642934367347 H 0.0 **** 0.06
34471 C 64.66436897006756 130.11477787577562 247.70794637786895 C 0.0 **** -0.24
34472 H 65.52081783270901 130.75731764572214 247.9161255659044 H 0.0 **** 0.06
34473 H 64.87780302254842 129.4991867189802 246.83321726716548 H 0.0 **** 0.06
34474 H 63.78699938054686 130.73017366350928 247.51369093112322 H 0.0 **** 0.06
34475 H 64.47553659018783 129.47231200589695 248.56809142902574 H 0.0 **** 0.06
34476 C 4.315277186470752 19.742756460529733 218.9302036408696 C 0.0 **** -0.24
34477 H 3.8214568509141316 20.54712399147043 219.4762850723783 H 0.0 **** 0.06
34478 H 3.7571007348385876 18.8158845243928 219.06789549463252 H 0.0 **** 0.06
34479 H 5.329479655728306 19.61666612647491 219.3094161802979 H 0.0 **** 0.06
34480 H 4.351671757269202 19.992391084668768 217.87037367959675 H 0.0 **** 0.06
34481 C 236.1454274924942 196.4759558686158 58.10793418739547 C 0.0 **** -0.24
34482 H 236.18940146329209 195.38686586463024 58.072680339917014 H 0.0 **** 0.06
34483 H 237.01456484479485 196.85659127010928 58.64404753278512 H 0.0 **** 0.06
34484 H 235.2350588459356 196.78623064359095 58.6222376722379 H 0.0 **** 0.06
34485 H 236.1412229582595 196.87217045155325 57.09280026059011 H 0.0 **** 0.06
34486 C 75.49901204064523 205.4835170634214 51.298402403663516 C 0.0 **** -0.24
34487 H 76.29779971004021 206.20469014220447 51.12867259604391 H 0.0 **** 0.06
34488 H 74.53773123026141 205.99778011160254 51.29083308332795 H 0.0 **** 0.06
34489 H 75.64512116941339 204.99960223425938 52.2638054925508 H 0.0 **** 0.06
34490 H 75.51473654917012 204.73070051606112 50.5093564168987 H 0.0 **** 0.06
34491 C 108.3661504398249 248.95835272709917 36.50326579950905 C 0.0 **** -0.24
34492 H 108.89602860532264 249.60753874389837 37.20088046531009 H 0.0 **** 0.06
34493 H 107.58213501390159 248.41843371260336 37.03399815812783 H 0.0 **** 0.06
34494 H 109.06643400667474 248.24602153403134 36.06745877465603 H 0.0 **** 0.06
34495 H 107.92116634655446 249.5614680428717 35.711529955581994 H 0.0 **** 0.06
34496 C 30.422557481483466 31.73273714738795 10.538490732270503 C 0.0 **** -0.24
34497 H 30.083405793063278 30.698756146194825 10.47624131765346 H 0.0 **** 0.06
34498 H 29.700742146933976 32.31771677467199 11.108149422973582 H 0.0 **** 0.06
34499 H 30.515128205785004 32.145419138365384 9.534192072294587 H 0.0 **** 0.06
34500 H 31.392695981317573 31.766820479731138 11.036362409650991 H 0.0 **** 0.06
34501 C 225.98313902456437 215.0893197906918 208.56831943313102 C 0.0 **** -0.24
34502 H 226.0032601579869 215.50008646238132 209.5780681427359 H 0.0 **** 0.06
34503 H 225.91135154159616 215.90411908988713 207.8461973853917 H 0.0 **** 0.06
34504 H 225.11996448669743 214.43227385991716 208.46131040392933 H 0.0 **** 0.06
34505 H 226.89700942217132 214.5229723358282 208.38828324806423 H 0.0 **** 0.06
34506 C 97.77917144152613 161.65899475620276 106.62972098701621 C 0.0 **** -0.24
34507 H 98.11937935353484 161.04473692817535 105.79581783332475 H 0.0 **** 0.06
34508 H 97.65345696957206 161.03355877182145 107.51365665895156 H 0.0 **** 0.06
34509 H 96.82753953331033 162.1233891527591 106.37348649818537 H 0.0 **** 0.06
34510 H 98.51834820004788 162.4335007952183 106.8338696643367 H 0.0 **** 0.06
34511 C 6.120054313975658 65.79872844193278 212.46421095233737 C 0.0 **** -0.24
34512 H 5.497144406924093 64.95124369780163 212.748380645434 H 0.0 **** 0.06
34513 H 6.21481740109337 66.48080838547966 213.30929525564156 H 0.0 **** 0.06
34514 H 5.660757575505414 66.32136675014073 211.62533773721282 H 0.0 **** 0.06
34515 H 7.108267755021899 65.44157047019041 212.17264628148737 H 0.0 **** 0.06
34516 C 212.55812985440338 177.269670510165 241.36527265883248 C 0.0 **** -0.24
34517 H 211.86810989074706 178.1064143018707 241.26157195813536 H 0.0 **** 0.06
34518 H 213.54932807994163 177.64650852800244 241.6212897945499 H 0.0 **** 0.06
34519 H 212.60900062450753 176.72237160687843 240.4243440546814 H 0.0 **** 0.06
34520 H 212.20689424045173 176.60412901219075 242.15477290697734 H 0.0 **** 0.06
34521 C 146.03529753595524 248.3356280030635 104.05801148429498 C 0.0 **** -0.24
34522 H 146.52662172497776 248.1286421987146 103.10733436433142 H 0.0 **** 0.06
34523 H 146.65466333044662 247.965586777863 104.87595958028953 H 0.0 **** 0.06
34524 H 145.0665082079996 247.83670073962682 104.0821028207726 H 0.0 **** 0.06
34525 H 145.89370065719604 249.410759385568 104.16775847673566 H 0.0 **** 0.06
34526 C 184.05123636144154 223.55750230476826 91.54405006130978 C 0.0 **** -0.24
34527 H 184.24341169039624 223.696855763148 90.47970667870237 H 0.0 **** 0.06
34528 H 184.03450366827457 224.52933418023113 92.0390767356262 H 0.0 **** 0.06
34529 H 184.8392385427395 222.94222853398657 91.97764124266243 H 0.0 **** 0.06
34530 H 183.0885709457733 223.0641247116168 91.67778269160246 H 0.0 **** 0.06
34531 C 85.38214353815388 160.30897742286922 21.78672747766987 C 0.0 **** -0.24
34532 H 84.68982012543995 159.72735041638322 21.17841515481453 H 0.0 **** 0.06
34533 H 86.18528276290428 159.6626716991756 22.14146240814088 H 0.0 **** 0.06
34534 H 84.85010846221923 160.73010651419403 22.64019718566766 H 0.0 **** 0.06
34535 H 85.80230221482887 161.11668710003883 21.186602205431996 H 0.0 **** 0.06
34536 C 199.0648571494683 165.5470241550724 41.62361428827634 C 0.0 **** -0.24
34537 H 199.68066153363526 165.45508670638532 40.72867069240847 H 0.0 **** 0.06
34538 H 198.09071274673198 165.09410390652187 41.44222385480687 H 0.0 **** 0.06
34539 H 198.93529049975456 166.60185385589847 41.867104248651216 H 0.0 **** 0.06
34540 H 199.5541650712819 165.03958295920796 42.454836134097604 H 0.0 **** 0.06
34541 C 168.0779836719529 214.3965173768314 112.5755953033009 C 0.0 **** -0.24
34542 H 168.19014253616433 213.37072595760515 112.22494174294928 H 0.0 **** 0.06
34543 H 169.06215175066055 214.81833511238057 112.78398334950225 H 0.0 **** 0.06
34544 H 167.4789944204137 214.40540719866237 113.48619149051831 H 0.0 **** 0.06
34545 H 167.581703197857 214.99146841411942 111.80863016253434 H 0.0 **** 0.06
34546 C 148.37981534025067 245.65452478243336 149.05914785632555 C 0.0 **** -0.24
34547 H 149.36203891521538 245.27365529974418 149.33809740456897 H 0.0 **** 0.06
34548 H 148.12023676917556 245.29356968266669 148.0632206679995 H 0.0 **** 0.06
34549 H 148.39995742906962 246.74439108710226 149.05733006133468 H 0.0 **** 0.06
34550 H 147.63742313747363 245.30551736626649 149.77656071180215 H 0.0 **** 0.06
34551 C 246.53769402535062 15.622164551482072 130.77080440499785 C 0.0 **** -0.24
34552 H 247.55584722200598 15.467060662629308 131.1281283805384 H 0.0 **** 0.06
34553 H 246.29983304894145 14.872578143214383 130.01594684021964 H 0.0 **** 0.06
34554 H 246.45392169301488 16.617281215098075 130.33530517444805 H 0.0 **** 0.06
34555 H 245.84291706792646 15.530096214366964 131.6056444916281 H 0.0 **** 0.06
34556 C 48.437437972441 137.1355702287707 122.5495989771097 C 0.0 **** -0.24
34557 H 48.8362677593411 138.1482814594496 122.49438729856138 H 0.0 **** 0.06
34558 H 47.35244594965292 137.17764569717357 122.64017781315934 H 0.0 **** 0.06
34559 H 48.8549930057237 136.627847064869 123.41965562015716 H 0.0 **** 0.06
34560 H 48.7062583560423 136.58913195523365 121.64606293732194 H 0.0 **** 0.06
34561 C 165.8884070292895 52.71635856432853 241.42307970772632 C 0.0 **** -0.24
34562 H 165.0948204778074 53.31390660875634 241.87247629845382 H 0.0 **** 0.06
34563 H 166.54233460069727 52.33375611746294 242.20693216275373 H 0.0 **** 0.06
34564 H 166.46507787333746 53.33619809722035 240.73683612412515 H 0.0 **** 0.06
34565 H 165.44825110198428 51.881987496294684 240.87704559782173 H 0.0 **** 0.06
34566 C 23.475235073065875 159.75686803450378 77.61415710732865 C 0.0 **** -0.24
34567 H 23.3007841193743 158.82459310985664 78.1510070821997 H 0.0 **** 0.06
34568 H 23.46533662316368 159.56446941015656 76.5413135217344 H 0.0 **** 0.06
34569 H 24.4442638931327 160.165987784833 77.90089871545197 H 0.0 **** 0.06
34570 H 22.691134544237215 160.47229795772006 77.86212475661148 H 0.0 **** 0.06
34571 C 19.286373819069055 247.32336736029262 239.39544561292996 C 0.0 **** -0.24
34572 H 18.651502021254842 248.19022983795952 239.21246798275098 H 0.0 **** 0.06
34573 H 20.273520410641225 247.49926519857752 238.9669154093469 H 0.0 **** 0.06
34574 H 18.841611282440397 246.44313738447428 238.93211415827938 H 0.0 **** 0.06
34575 H 19.37985195071684 247.16145775915973 240.46948876527466 H 0.0 **** 0.06
34576 C 193.52154731322133 37.5120096214943 211.99965215445803 C 0.0 **** -0.24
34577 H 193.03766544061358 38.43750013041233 212.3131600948402 H 0.0 **** 0.06
34578 H 194.23908325565387 37.20196837611161 212.75945750343516 H 0.0 **** 0.06
34579 H 194.03972704044642 37.675136061076415 211.05514641314147 H 0.0 **** 0.06
34580 H 192.76842444484458 36.73401522363642 211.87086457600628 H 0.0 **** 0.06
34581 C 49.393024916575854 192.66339691737556 131.72739752976932 C 0.0 **** -0.24
34582 H 49.572133026109896 192.6045409226869 130.65412132121955 H 0.0 **** 0.06
34583 H 48.331561952516296 192.51898303356757 131.92673284342254 H 0.0 **** 0.06
34584 H 49.70218889404663 193.64240414488083 132.09359700128797 H 0.0 **** 0.06
34585 H 49.967651239736824 191.88828464764785 132.23389444146855 H 0.0 **** 0.06
34586 C 14.858205770753798 164.47869979290743 194.10402865235994 C 0.0 **** -0.24
34587 H 14.418834490116765 164.67149832288135 193.1249468474903 H 0.0 **** 0.06
34588 H 14.620002615779441 163.46018366249297 194.41355851496007 H 0.0 **** 0.06
34589 H 14.452703549568213 165.1834543147305 194.8286213397236 H 0.0 **** 0.06
34590 H 15.94009117057017 164.5981952886679 194.04575878297436 H 0.0 **** 0.06
34591 C 116.80230314040577 104.11808834434697 234.61679999329252 C 0.0 **** -0.24
34592 H 117.51980782908984 103.78375392359524 233.8676737804588 H 0.0 **** 0.06
34593 H 116.97088401318555 105.17257690075465 234.83667029299784 H 0.0 **** 0.06
34594 H 116.92728571885428 103.53149697922626 235.52707000622354 H 0.0 **** 0.06
34595 H 115.79000487730727 103.98331441570986 234.2343646469642 H 0.0 **** 0.06
34596 C 217.39607896077072 240.03263402671223 80.0884580303306 C 0.0 **** -0.24
34597 H 217.62095986580033 239.13888540728408 80.67093769359417 H 0.0 **** 0.06
34598 H 217.4778316742819 240.91271919680767 80.7274166908775 H 0.0 **** 0.06
34599 H 216.3819389303571 239.9622743995667 79.6946521204762 H 0.0 **** 0.06
34600 H 218.10215323415045 240.11532918908551 79.26191450211417 H 0.0 **** 0.06
34601 C 123.29178923528454 220.92424386379474 133.1478743908831 C 0.0 **** -0.24
34602 H 122.79945121479679 221.32354813240943 132.26100069837796 H 0.0 **** 0.06
34603 H 123.95038126588659 221.68307716351887 133.56965410038444 H 0.0 **** 0.06
34604 H 123.87594714179463 220.0459254629128 132.87318748489997 H 0.0 **** 0.06
34605 H 122.53979883277506 220.64380745461375 133.8851799046253 H 0.0 **** 0.06
34606 C 126.75566168086476 42.35472856721445 195.22406621692133 C 0.0 **** -0.24
34607 H 126.38975492038401 41.53541409083644 195.84394976510617 H 0.0 **** 0.06
34608 H 127.80371265935779 42.18147307825673 194.97634607735654 H 0.0 **** 0.06
34609 H 126.66059867745469 43.29353606501681 195.76917911446938 H 0.0 **** 0.06
34610 H 126.16946701413971 42.40564391203367 194.3071185636848 H 0.0 **** 0.06
34611 C 61.718058929217165 42.472360125847786 141.60943148865957 C 0.0 **** -0.24
34612 H 61.13903954517701 43.39364703661815 141.67884731751641 H 0.0 **** 0.06
34613 H 61.613610934260635 41.90795659685912 142.53689030545118 H 0.0 **** 0.06
34614 H 62.767956584270365 42.71429446230729 141.44687918502964 H 0.0 **** 0.06
34615 H 61.34986925016358 41.87468833019361 140.77637066197744 H 0.0 **** 0.06
34616 C 37.701237734116575 85.68519464792274 117.20762493713741 C 0.0 **** -0.24
34617 H 37.98400711113092 84.63621446863203 117.29404038046167 H 0.0 **** 0.06
34618 H 37.28480944164832 85.8691516836268 116.21764673152947 H 0.0 **** 0.06
34619 H 38.581044410573526 86.3114382026586 117.3556174763304 H 0.0 **** 0.06
34620 H 36.9554140795228 85.92315872459616 117.96606395484628 H 0.0 **** 0.06
34621 C 48.18647488556552 76.32659796522998 136.77528315025333 C 0.0 **** -0.24
34622 H 47.45215090401477 76.80761497055178 137.42069192816186 H 0.0 **** 0.06
34623 H 47.7763478610578 76.22312761080147 135.7703262925521 H 0.0 **** 0.06
34624 H 48.428632674584605 75.34054585131355 137.1725883347291 H 0.0 **** 0.06
34625 H 49.09042947120625 76.93478983367311 136.7379022662793 H 0.0 **** 0.06
34626 C 194.83547413809117 29.47887735392311 135.79942141930118 C 0.0 **** -0.24
34627 H 194.16078560773042 28.627030096490984 135.7081568778489 H 0.0 **** 0.06
34628 H 194.9183887282183 29.765098732553355 136.8479494652995 H 0.0 **** 0.06
34629 H 194.443189004393 30.316907929695347 135.22315264640042 H 0.0 **** 0.06
34630 H 195.81948135189964 29.204332496979404 135.41778087460017 H 0.0 **** 0.06
34631 C 42.433504482383725 70.91941280691339 41.71315949443445 C 0.0 **** -0.24
34632 H 41.85482380830241 71.00989710257716 40.794293981082404 H 0.0 **** 0.06
34633 H 42.97649355272169 69.97486692769098 41.70897499154407 H 0.0 **** 0.06
34634 H 41.76034432541999 70.94864824221253 42.5699028985745 H 0.0 **** 0.06
34635 H 43.14096822488878 71.74580441148237 41.77867692930627 H 0.0 **** 0.06
34636 C 52.0551461494899 58.13123189805634 204.9012411924367 C 0.0 **** -0.24
34637 H 51.54587020822518 57.96670297763981 205.85107582228764 H 0.0 **** 0.06
34638 H 51.33442648996194 58.06299192078461 204.08577135455923 H 0.0 **** 0.06
34639 H 52.82818060455176 57.37487723081574 204.76815884759787 H 0.0 **** 0.06
34640 H 52.511558427946824 59.120860624898484 204.90062475273015 H 0.0 **** 0.06
34641 C 102.85257677627521 179.53536317609235 112.96129952821545 C 0.0 **** -0.24
34642 H 103.3594198654809 180.12584835269277 112.19773753797813 H 0.0 **** 0.06
34643 H 103.20121356463645 179.84211454861946 113.94744229399149 H 0.0 **** 0.06
34644 H 103.07489620999272 178.478590851647 112.80935577479949 H 0.0 **** 0.06
34645 H 101.77655942665797 179.69430313111187 112.88945021096555 H 0.0 **** 0.06
34646 C 132.33320327566125 67.083102246213 80.59059871163552 C 0.0 **** -0.24
34647 H 133.17394924277036 66.72640434118321 81.18586873071433 H 0.0 **** 0.06
34648 H 131.4008223037442 66.73213395604435 81.03333063466127 H 0.0 **** 0.06
34649 H 132.4191561528645 66.69920245369138 79.57381032345003 H 0.0 **** 0.06
34650 H 132.33874004915302 68.17251165696962 80.5699579549499 H 0.0 **** 0.06
34651 C 118.68410722773993 119.25544689132295 110.02666168918665 C 0.0 **** -0.24
34652 H 119.06282203853561 118.61951048223534 110.82619000940505 H 0.0 **** 0.06
34653 H 118.10257393652236 118.65386737649553 109.32775848279599 H 0.0 **** 0.06
34654 H 119.52159406140643 119.71488375929474 109.50062542871194 H 0.0 **** 0.06
34655 H 118.05074892622815 120.03379761531787 110.451614599648 H 0.0 **** 0.06
34656 C 23.1805734767527 239.4394514562175 25.599796651525693 C 0.0 **** -0.24
34657 H 23.2527397058155 238.48029886825486 26.112422164075397 H 0.0 **** 0.06
34658 H 23.344211149931212 240.24633068308225 26.314732454670533 H 0.0 **** 0.06
34659 H 22.188627415750005 239.5411911224598 25.158673506395985 H 0.0 **** 0.06
34660 H 23.93487523430582 239.48997179864074 24.81462843914639 H 0.0 **** 0.06
34661 C 184.97705364858874 238.54472360828188 7.454778575548431 C 0.0 **** -0.24
34662 H 185.01475567769404 239.55304540717782 7.042217939709843 H 0.0 **** 0.06
34663 H 185.95878586949794 238.07941804007652 7.365929576436798 H 0.0 **** 0.06
34664 H 184.2430912278096 237.9550946363633 6.905250221622822 H 0.0 **** 0.06
34665 H 184.69210639646957 238.59366098023665 8.50628310591324 H 0.0 **** 0.06
34666 C 235.37840975473452 96.08814545576595 143.11578746642545 C 0.0 **** -0.24
34667 H 235.20716554369446 96.41492298548468 144.1410895819048 H 0.0 **** 0.06
34668 H 235.17780114534773 96.91465273946764 142.43324920689054 H 0.0 **** 0.06
34669 H 234.7138062335958 95.2555343345573 142.88357321840527 H 0.0 **** 0.06
34670 H 236.41417352363953 95.7681456435439 143.00380041003888 H 0.0 **** 0.06
34671 C 223.58007191701063 223.02014067785166 54.974345959111844 C 0.0 **** -0.24
34672 H 223.78007547250968 223.78375169732763 54.222238676696975 H 0.0 **** 0.06
34673 H 223.18306456779266 222.1281726153838 54.48884650769065 H 0.0 **** 0.06
34674 H 222.85142655758898 223.39875586277523 55.690822090054894 H 0.0 **** 0.06
34675 H 224.50508332575714 222.7706619909825 55.49324367366924 H 0.0 **** 0.06
34676 C 10.184457152084121 33.37651382029057 172.39625944699125 C 0.0 **** -0.24
34677 H 10.446843269867955 33.76461160902507 171.41232896388124 H 0.0 **** 0.06
34678 H 9.160171336143918 33.00285586189867 172.37862776845984 H 0.0 **** 0.06
34679 H 10.268210872839717 34.17316638781692 173.1351874312336 H 0.0 **** 0.06
34680 H 10.862936891054318 32.56451942609493 172.6586197346692 H 0.0 **** 0.06
34681 C 128.4612289710872 117.17017622176883 110.86120237089219 C 0.0 **** -0.24
34682 H 129.08407514403737 116.34100546259637 110.52317266534493 H 0.0 **** 0.06
34683 H 128.97848647291116 117.712884771028 111.65266726609343 H 0.0 **** 0.06
34684 H 127.51683101000228 116.78219086423451 111.2432762189807 H 0.0 **** 0.06
34685 H 128.2667924700771 117.84176563968367 110.02522410207789 H 0.0 **** 0.06
34686 C 121.07312657909713 127.19332170792225 99.6239008485432 C 0.0 **** -0.24
34687 H 120.9086862798485 127.88970845146446 98.80097225431061 H 0.0 **** 0.06
34688 H 122.14354311754408 127.0448625220732 99.76604469388053 H 0.0 **** 0.06
34689 H 120.60215431469513 126.23801848762903 99.38990626968669 H 0.0 **** 0.06
34690 H 120.636759991194 127.60026929966742 100.53604197074901 H 0.0 **** 0.06
34691 C 9.514556260405527 61.3520289920921 204.42352737228165 C 0.0 **** -0.24
34692 H 10.136022347873137 61.11948520902004 205.28832553417672 H 0.0 **** 0.06
34693 H 8.464635626892942 61.33369205540728 204.71504749981779 H 0.0 **** 0.06
34694 H 9.687108276728992 60.610914909813744 203.64322212060267 H 0.0 **** 0.06
34695 H 9.770771723808949 62.341724414799415 204.04673012432647 H 0.0 **** 0.06
34696 C 40.390416832390486 153.282371625535 128.16023261405698 C 0.0 **** -0.24
34697 H 41.35008865747332 153.47482031641897 128.64161195973463 H 0.0 **** 0.06
34698 H 40.15532455848695 154.1003260270719 127.47875202375712 H 0.0 **** 0.06
34699 H 39.61251097313584 153.2074038891613 128.9198350615884 H 0.0 **** 0.06
34700 H 40.44582076548484 152.3486330429173 127.6020747360698 H 0.0 **** 0.06
34701 C 185.90129008469427 63.31476680590629 25.29180510000151 C 0.0 **** -0.24
34702 H 185.66670817244324 62.255098771990674 25.393670478484637 H 0.0 **** 0.06
34703 H 186.78542846385017 63.548932618990506 25.886698611672443 H 0.0 **** 0.06
34704 H 185.05814449027173 63.908996697339575 25.64244294817138 H 0.0 **** 0.06
34705 H 186.09775845508958 63.54365481847313 24.244249837157156 H 0.0 **** 0.06
34706 C 108.43269553723815 28.57178579283017 234.86544090053923 C 0.0 **** -0.24
34707 H 108.20459490536501 28.801319251588197 233.82424299957222 H 0.0 **** 0.06
34708 H 108.19489485207484 27.526782463000984 235.0674890544873 H 0.0 **** 0.06
34709 H 107.83942086440851 29.21239596653909 235.51652716143286 H 0.0 **** 0.06
34710 H 109.49224914313564 28.745465282044364 235.0522942031774 H 0.0 **** 0.06
34711 C 66.84973767341637 228.13947695864871 179.2609921778178 C 0.0 **** -0.24
34712 H 66.19624180035669 227.81703913659814 178.45066905744008 H 0.0 **** 0.06
34713 H 67.8860888515932 228.1164045219501 178.92328006357246 H 0.0 **** 0.06
34714 H 66.72934420712579 227.4703664985349 180.11231183767387 H 0.0 **** 0.06
34715 H 66.58661458127722 229.15511417920098 179.55698009342876 H 0.0 **** 0.06
34716 C 16.186142789615673 31.075280650701913 145.64046596458675 C 0.0 **** -0.24
34717 H 16.74967300675847 30.252923416059772 146.08004625530037 H 0.0 **** 0.06
34718 H 16.13880351854405 31.902833016646383 146.34837743169012 H 0.0 **** 0.06
34719 H 15.176187571546564 30.73853574133578 145.4059304756022 H 0.0 **** 0.06
34720 H 16.679622934636114 31.405744541850353 144.72619054804457 H 0.0 **** 0.06
34721 C 101.65041912150929 106.73910877484516 77.35123064138011 C 0.0 **** -0.24
34722 H 101.83800735034109 106.77144037535786 78.42445284226034 H 0.0 **** 0.06
34723 H 102.52645298006212 106.33614921490371 76.84177028665732 H 0.0 **** 0.06
34724 H 101.4501144725966 107.74755390037674 76.98774328779041 H 0.0 **** 0.06
34725 H 100.78885420798909 106.10268038640646 77.15095740595669 H 0.0 **** 0.06
34726 C 227.72162463905445 134.14058638168734 185.2751674095524 C 0.0 **** -0.24
34727 H 227.89153493843114 135.19378374948153 185.4965773327484 H 0.0 **** 0.06
34728 H 226.99833606782977 133.73316447772012 185.9812513988727 H 0.0 **** 0.06
34729 H 228.66161915557566 133.59536251425217 185.36079925648647 H 0.0 **** 0.06
34730 H 227.3347370260254 134.04129781755634 184.2602165042418 H 0.0 **** 0.06
34731 C 165.8101725469693 186.68352845463062 159.12445172798084 C 0.0 **** -0.24
34732 H 165.2151096616634 185.8107054013582 159.39238949210585 H 0.0 **** 0.06
34733 H 165.62995417901413 187.48168154472208 159.8454001070485 H 0.0 **** 0.06
34734 H 165.52821268526 187.02355266967587 158.12750852624256 H 0.0 **** 0.06
34735 H 166.8678674195591 186.41867846493057 159.1317740529489 H 0.0 **** 0.06
34736 C 245.482268712387 64.83236961705151 239.78837133384218 C 0.0 **** -0.24
34737 H 244.54111810552723 64.72141793197207 239.2497612443064 H 0.0 **** 0.06
34738 H 246.0187298607313 63.88427535880962 239.78048022820616 H 0.0 **** 0.06
34739 H 245.27833236914188 65.12702343067079 240.81792933122676 H 0.0 **** 0.06
34740 H 246.08869174064193 65.59842322259951 239.30469214525783 H 0.0 **** 0.06
34741 C 34.987056658478565 47.91264127551332 132.2084864254343 C 0.0 **** -0.24
34742 H 35.860594736698985 47.49629304835952 132.70899610289095 H 0.0 **** 0.06
34743 H 34.09641723057443 47.71144591454663 132.80408982429765 H 0.0 **** 0.06
34744 H 34.878475907079846 47.45291200453188 131.22579634515776 H 0.0 **** 0.06
34745 H 35.11245882117376 48.988556436697195 132.09402500747493 H 0.0 **** 0.06
34746 C 63.1690765692546 90.63293089999493 15.068061959002648 C 0.0 **** -0.24
34747 H 64.06741717254445 90.98132615297993 15.578106546756715 H 0.0 **** 0.06
34748 H 62.93436828077594 89.6199375457976 15.397274758792676 H 0.0 **** 0.06
34749 H 63.33866567787152 90.63583082878654 13.991167954339701 H 0.0 **** 0.06
34750 H 62.33662634343534 91.29492329534241 15.306846925629515 H 0.0 **** 0.06
34751 C 223.54623841165983 54.876579247521505 225.37338644839997 C 0.0 **** -0.24
34752 H 223.06911216310954 55.545596213776065 224.65720950709908 H 0.0 **** 0.06
34753 H 223.9027125064397 55.4530402951892 226.22663637816643 H 0.0 **** 0.06
34754 H 224.38716278763098 54.37413980941412 224.89626029561663 H 0.0 **** 0.06
34755 H 222.82393297017708 54.133283984207054 225.71254508515193 H 0.0 **** 0.06
34756 C 80.32951815062628 202.716282714805 207.33013636212314 C 0.0 **** -0.24
34757 H 79.56018707368847 201.96794357436747 207.1398397675066 H 0.0 **** 0.06
34758 H 80.99154530385587 202.78394853924908 206.46753451751135 H 0.0 **** 0.06
34759 H 80.90558630555162 202.42854853636516 208.2099233238491 H 0.0 **** 0.06
34760 H 79.85840595769304 203.68349359033513 207.5046814597348 H 0.0 **** 0.06
34761 C 207.55443357545968 168.2212374559547 51.384695225977595 C 0.0 **** -0.24
34762 H 208.22589108073157 167.60016825166383 50.7906249904228 H 0.0 **** 0.06
34763 H 207.6209390114447 167.92663454845598 52.43261208098838 H 0.0 **** 0.06
34764 H 206.53161561089473 168.0885707163477 51.033395485692694 H 0.0 **** 0.06
34765 H 207.8416368589864 169.26728133630695 51.28168049109874 H 0.0 **** 0.06
34766 C 230.1402098594607 22.131727579459366 200.34198941274968 C 0.0 **** -0.24
34767 H 230.84641218042296 22.942072472126952 200.52273510518134 H 0.0 **** 0.06
34768 H 229.68005625003656 21.83441844863431 201.28513018727375 H 0.0 **** 0.06
34769 H 230.66667808470018 21.280080148934175 199.9103177344336 H 0.0 **** 0.06
34770 H 229.36855871957007 22.46956912519788 199.6514047607153 H 0.0 **** 0.06
34771 C 205.0866067231355 238.61208967957435 184.0947248996081 C 0.0 **** -0.24
34772 H 205.24649628369403 239.0185397532009 185.09328548017047 H 0.0 **** 0.06
34773 H 204.05379381583487 238.2754658688368 184.00055226427403 H 0.0 **** 0.06
34774 H 205.76043259044422 237.77026908224255 183.9342183419789 H 0.0 **** 0.06
34775 H 205.2872022929482 239.38485427345552 183.35231404738798 H 0.0 **** 0.06
34776 C 41.240901971062115 138.61858455749856 224.75033930038097 C 0.0 **** -0.24
34777 H 41.78378043329184 138.21532795705295 223.89495127881048 H 0.0 **** 0.06
34778 H 40.433415895119666 139.26126202727326 224.39836702258995 H 0.0 **** 0.06
34779 H 41.921942414711765 139.19787935056334 225.3728937276333 H 0.0 **** 0.06
34780 H 40.823749738348354 137.7978616965199 225.33447162800533 H 0.0 **** 0.06
34781 C 145.33021841906645 111.84486592124873 213.32613423210907 C 0.0 **** -0.24
34782 H 146.20583277889799 112.48518820870177 213.21474105447263 H 0.0 **** 0.06
34783 H 144.53054503974053 112.40472169262256 213.81270343163786 H 0.0 **** 0.06
34784 H 145.58948272343756 110.97830539769222 213.9347297075628 H 0.0 **** 0.06
34785 H 144.9965327772458 111.51191717538836 212.34386055130557 H 0.0 **** 0.06
34786 C 61.53461220939391 176.14593484127093 218.30516322027304 C 0.0 **** -0.24
34787 H 61.519550209203175 177.07105283781834 217.7286509472723 H 0.0 **** 0.06
34788 H 62.30033723593749 176.21247474054402 219.07785927426016 H 0.0 **** 0.06
34789 H 61.758024571773234 175.30956720641677 217.64292937672442 H 0.0 **** 0.06
34790 H 60.56046415676485 175.9923322231865 218.7694394057578 H 0.0 **** 0.06
34791 C 187.4029403529534 163.6872416592742 119.12061173946816 C 0.0 **** -0.24
34792 H 187.97927109425933 164.59203706643257 118.92943457127342 H 0.0 **** 0.06
34793 H 186.39324038455956 163.81059236825692 118.7273266546552 H 0.0 **** 0.06
34794 H 187.35413875619923 163.50830998425906 120.19506761859802 H 0.0 **** 0.06
34795 H 187.88333482993633 162.84021724442954 118.63164205883365 H 0.0 **** 0.06
34796 C 23.77143405413679 171.46163997445794 245.34120697535923 C 0.0 **** -0.24
34797 H 23.1945894586149 171.59732023905238 244.42670506648426 H 0.0 **** 0.06
34798 H 23.096476296935037 171.22225351618974 246.16359297308705 H 0.0 **** 0.06
34799 H 24.311386482899223 172.38100141031404 245.5691971074419 H 0.0 **** 0.06
34800 H 24.482080473353477 170.64669216735214 245.2051066318533 H 0.0 **** 0.06
34801 C 61.71858787597617 113.94619159695972 83.09801723723197 C 0.0 **** -0.24
34802 H 61.972500022191156 113.43748224038629 84.0285702943645 H 0.0 **** 0.06
34803 H 61.47018443671223 113.20604030333803 82.33692567267104 H 0.0 **** 0.06
34804 H 62.56950680478889 114.53918800854186 82.76442348626526 H 0.0 **** 0.06
34805 H 60.861743149838134 114.59909680231445 83.26241453417936 H 0.0 **** 0.06
34806 C 213.6267729747274 32.203020128866186 92.444895079737 C 0.0 **** -0.24
34807 H 213.55283521655377 31.738031482344496 93.4271375751481 H 0.0 **** 0.06
34808 H 213.72677264120244 33.28259096735735 92.56036562703514 H 0.0 **** 0.06
34809 H 212.72795570154642 31.981179401506864 91.86966054584497 H 0.0 **** 0.06
34810 H 214.49896157166717 31.8109481655802 91.92130726412964 H 0.0 **** 0.06
34811 C 207.42186211477994 101.91593295248626 214.7209330620434 C 0.0 **** -0.24
34812 H 206.51940705932716 102.47423550387114 214.97075040987 H 0.0 **** 0.06
34813 H 207.29805615254546 101.44395651236223 213.74541427260334 H 0.0 **** 0.06
34814 H 207.5950042174911 101.14910781539882 215.47699562911214 H 0.0 **** 0.06
34815 H 208.27339257474813 102.5954454477735 214.69128158941334 H 0.0 **** 0.06
34816 C 204.6993815157726 28.32283292100071 172.6583736029399 C 0.0 **** -0.24
34817 H 205.44424001826584 27.52962480967156 172.71032799360282 H 0.0 **** 0.06
34818 H 205.19766741698785 29.278850886967433 172.49988583876456 H 0.0 **** 0.06
34819 H 204.1379620131475 28.35525989138182 173.59241546940908 H 0.0 **** 0.06
34820 H 204.01668419152372 28.126581723492563 171.83070554458882 H 0.0 **** 0.06
34821 C 133.89542532836072 73.88738175190375 172.24575833510715 C 0.0 **** -0.24
34822 H 133.69621319312097 74.62091887132064 173.02651974638545 H 0.0 **** 0.06
34823 H 134.96580866729278 73.85682450510419 172.0409869109265 H 0.0 **** 0.06
34824 H 133.35920465717058 74.1660883324443 171.33946335664575 H 0.0 **** 0.06
34825 H 133.56123655304862 72.90405926934358 172.57738362282623 H 0.0 **** 0.06
34826 C 183.69019136967944 123.68146630337907 11.357037371923 C 0.0 **** -0.24
34827 H 183.02461783966365 123.7701870082895 10.497283278854212 H 0.0 **** 0.06
34828 H 183.09925680704197 123.51087528894692 12.256805461730323 H 0.0 **** 0.06
34829 H 184.26412099520547 124.60160018681879 11.46742755156096 H 0.0 **** 0.06
34830 H 184.37123224313268 122.84484134329924 11.203813465600149 H 0.0 **** 0.06
34831 C 7.67981482985229 39.93955923277173 159.41234642002644 C 0.0 **** -0.24
34832 H 8.189544925322934 38.99891736538143 159.20281675543376 H 0.0 **** 0.06
34833 H 6.630145598836691 39.7422817880157 159.63291318243557 H 0.0 **** 0.06
34834 H 7.7521384245891625 40.593381151619326 158.5440211632822 H 0.0 **** 0.06
34835 H 8.147288065000083 40.42247172420667 160.27088988205884 H 0.0 **** 0.06
34836 C 219.46008434508036 235.79816567159665 6.6699082951038235 C 0.0 **** -0.24
34837 H 219.41445694024569 234.7235782926979 6.8433748984773075 H 0.0 **** 0.06
34838 H 219.94967483365014 236.28215342312683 7.515333386173964 H 0.0 **** 0.06
34839 H 218.44906002644456 236.1914982964019 6.56164543303494 H 0.0 **** 0.06
34840 H 220.02645543159764 235.99680692299478 5.760076434849907 H 0.0 **** 0.06
34841 C 215.21990393571625 18.06877149581325 158.12065901134858 C 0.0 **** -0.24
34842 H 215.32312879931558 17.862458436295952 159.18549801717225 H 0.0 **** 0.06
34843 H 214.68098551422523 17.249150804588325 157.64266795315933 H 0.0 **** 0.06
34844 H 216.2085811099199 18.163336869990985 157.67143255898242 H 0.0 **** 0.06
34845 H 214.66597181887218 18.997359704217658 157.98242833681277 H 0.0 **** 0.06
34846 C 158.6799512758055 19.735378802426055 11.781750723143745 C 0.0 **** -0.24
34847 H 159.6617037417728 20.15835099151846 11.991686854747712 H 0.0 **** 0.06
34848 H 158.1864363879913 19.47965922265537 12.720287956089436 H 0.0 **** 0.06
34849 H 158.7942597536377 18.836666153853784 11.174618341784054 H 0.0 **** 0.06
34850 H 158.0774922891413 20.46511384331714 11.24182989779024 H 0.0 **** 0.06
34851 C 33.732699603739164 133.14960651707426 175.7546624615701 C 0.0 **** -0.24
34852 H 34.38945234490214 132.86360762856012 176.57590118230945 H 0.0 **** 0.06
34853 H 32.72781073151825 132.77000792669577 175.94363295759558 H 0.0 **** 0.06
34854 H 34.11092563451665 132.72925989755004 174.82360857290792 H 0.0 **** 0.06
34855 H 33.70178557806244 134.23700777789762 175.6759515694475 H 0.0 **** 0.06
34856 C 160.1794189300254 96.1484177155688 114.27205693480943 C 0.0 **** -0.24
34857 H 160.69980255213784 96.99713090379691 113.82906215858304 H 0.0 **** 0.06
34858 H 159.17176406836194 96.08563247842093 113.86053990209959 H 0.0 **** 0.06
34859 H 160.12284233355678 96.28155239922211 115.35205267838458 H 0.0 **** 0.06
34860 H 160.72175812152324 95.23097280756556 114.046900109663 H 0.0 **** 0.06
34861 C 101.29669399608935 189.06343216395535 64.40665457737802 C 0.0 **** -0.24
34862 H 102.29987770058179 188.76764923437275 64.1020442220995 H 0.0 **** 0.06
34863 H 100.77350077498318 188.19991305536303 64.81965480701396 H 0.0 **** 0.06
34864 H 100.75059347105045 189.43975131558398 63.54226480933352 H 0.0 **** 0.06
34865 H 101.36249424859022 189.84521224958814 65.16333072554292 H 0.0 **** 0.06
34866 C 231.51561760246182 197.47166503196496 196.75793646208703 C 0.0 **** -0.24
34867 H 230.7930478029119 197.59796043581179 197.56408094236676 H 0.0 **** 0.06
34868 H 231.80352557475845 198.44905764219513 196.37051775352674 H 0.0 **** 0.06
34869 H 231.0681392818264 196.88111337609035 195.9579530424318 H 0.0 **** 0.06
34870 H 232.397930523769 196.9571586576223 197.13888878299142 H 0.0 **** 0.06
34871 C 208.25314980775556 10.672132419057519 15.7352091511016 C 0.0 **** -0.24
34872 H 207.79691044098735 11.395704927617928 15.060347665431692 H 0.0 **** 0.06
34873 H 208.4424425712195 11.144215223836596 16.699048681353787 H 0.0 **** 0.06
34874 H 209.19428956433904 10.321910814823482 15.310462918117508 H 0.0 **** 0.06
34875 H 207.57942536979152 9.825605851167268 15.870211842864336 H 0.0 **** 0.06
34876 C 156.9545161435845 115.73342471840567 161.30581170495782 C 0.0 **** -0.24
34877 H 157.8674237273031 115.49753106870952 161.85331559127334 H 0.0 **** 0.06
34878 H 156.1003814584363 115.67227578667467 161.98140058322446 H 0.0 **** 0.06
34879 H 156.82528727554546 115.02300288665123 160.49070909351434 H 0.0 **** 0.06
34880 H 157.02544316145185 116.74310148049636 160.90080211586564 H 0.0 **** 0.06
34881 C 232.39112745653614 72.921964566918 243.28314359746508 C 0.0 **** -0.24
34882 H 233.0226839449544 72.49916703190641 242.5028095663037 H 0.0 **** 0.06
34883 H 232.52190069399603 74.00358445495954 243.31093467565898 H 0.0 **** 0.06
34884 H 232.67141379306346 72.49674582081352 244.24759845416554 H 0.0 **** 0.06
34885 H 231.3471447976395 72.6867717212468 243.07201065645722 H 0.0 **** 0.06
34886 C 197.62999182722376 2.1443744512419585 247.00153423361775 C 0.0 **** -0.24
34887 H 197.6617810937594 2.849591125037904 247.83172123015618 H 0.0 **** 0.06
34888 H 198.61357836763253 2.090419267404087 246.53322136812528 H 0.0 **** 0.06
34889 H 196.89629129679184 2.479338596680549 246.26789186280035 H 0.0 **** 0.06
34890 H 197.34869544473162 1.1588648055976876 247.3717715170839 H 0.0 **** 0.06
34891 C 33.486551669142244 23.491981985119224 135.74361780160777 C 0.0 **** -0.24
34892 H 33.9487264136952 23.854888719058607 134.82633117052418 H 0.0 **** 0.06
34893 H 34.12625985409997 22.73435747998107 136.19687283115385 H 0.0 **** 0.06
34894 H 32.514517550493196 23.056916488701944 135.51320676349516 H 0.0 **** 0.06
34895 H 33.35768414583359 24.321584970782254 136.43812813832537 H 0.0 **** 0.06
34896 C 86.90199302458123 46.401932174043424 68.97730526266761 C 0.0 **** -0.24
34897 H 87.26367435208658 47.314615649919716 69.44970556769272 H 0.0 **** 0.06
34898 H 87.36532427751456 45.5371217603963 69.45246804529108 H 0.0 **** 0.06
34899 H 87.15886854746714 46.41515246563955 67.91796879056363 H 0.0 **** 0.06
34900 H 85.81917663123139 46.340485007588285 69.08707536408266 H 0.0 **** 0.06
34901 C 240.01793734167381 31.339277318474586 134.6103389151851 C 0.0 **** -0.24
34902 H 240.4189742047225 30.433017653243468 134.15631642194282 H 0.0 **** 0.06
34903 H 240.5011197749634 31.50842229039702 135.57264930368962 H 0.0 **** 0.06
34904 H 238.94376922103385 31.226300933736496 134.75756240458318 H 0.0 **** 0.06
34905 H 240.20742154929286 32.187603237600314 133.95319400557972 H 0.0 **** 0.06
34906 C 177.7158465525227 79.08679668053225 184.72131360566596 C 0.0 **** -0.24
34907 H 178.5321380612271 79.7549866929335 184.9962678785685 H 0.0 **** 0.06
34908 H 176.7773261895569 79.48100398417967 185.11164385523506 H 0.0 **** 0.06
34909 H 177.89780716835298 78.0979951045376 185.14188743144572 H 0.0 **** 0.06
34910 H 177.65686910749326 79.01496687709061 183.63489622844443 H 0.0 **** 0.06
34911 C 139.12046452188173 248.86699383334462 111.62704185168397 C 0.0 **** -0.24
34912 H 140.08987083962083 248.3707552733792 111.5762554712326 H 0.0 **** 0.06
34913 H 138.65443575915293 248.657037882495 112.58887200472961 H 0.0 **** 0.06
34914 H 138.48124310177607 248.49706259738355 110.82512824670945 H 0.0 **** 0.06
34915 H 139.25811151406606 249.94243395172987 111.51470562998844 H 0.0 **** 0.06
34916 C 110.0408126672757 32.38562688280521 240.1403017276004 C 0.0 **** -0.24
34917 H 110.10481391301454 33.35675874083984 240.63109733029574 H 0.0 **** 0.06
34918 H 110.63711609449678 32.40028578677848 239.22739268562782 H 0.0 **** 0.06
34919 H 109.00120075299617 32.17106253391225 239.8917845618205 H 0.0 **** 0.06
34920 H 110.42089334421968 31.614305855808595 240.8103055509683 H 0.0 **** 0.06
34921 C 122.5130016226318 174.73233460763495 62.0670248442689 C 0.0 **** -0.24
34922 H 121.78404617243302 175.47426791731095 61.74213797509927 H 0.0 **** 0.06
34923 H 123.49857691314034 174.99839576413132 61.68351293081528 H 0.0 **** 0.06
34924 H 122.22770566333682 173.75103056420468 61.68753813628942 H 0.0 **** 0.06
34925 H 122.54328797758825 174.70540767284535 63.156740979728994 H 0.0 **** 0.06
34926 C 68.61113284217234 52.86060756084049 52.847615132773555 C 0.0 **** -0.24
34927 H 67.59604389152636 52.488355360938556 52.98688929996523 H 0.0 **** 0.06
34928 H 69.3088669905554 52.022017141642664 52.86041188176965 H 0.0 **** 0.06
34929 H 68.85820890526773 53.55184957304854 53.65263653445024 H 0.0 **** 0.06
34930 H 68.67985048163425 53.37681353889445 51.890721810106825 H 0.0 **** 0.06
34931 C 160.5631715251112 25.577021093558102 70.05591730840399 C 0.0 **** -0.24
34932 H 159.72346892706506 26.094964285478213 69.59284068090062 H 0.0 **** 0.06
34933 H 161.38852779383345 26.275470136522486 70.19616187712808 H 0.0 **** 0.06
34934 H 160.88504051508588 24.75844997571241 69.4121260009143 H 0.0 **** 0.06
34935 H 160.25446608175432 25.17864370376965 71.02308067946294 H 0.0 **** 0.06
34936 C 97.72620085050215 167.27428425160085 200.20582235371046 C 0.0 **** -0.24
34937 H 97.2446061246429 168.10289596436365 200.72438451206295 H 0.0 **** 0.06
34938 H 97.11979985421485 166.98137082881445 199.34810670259995 H 0.0 **** 0.06
34939 H 97.82659552478088 166.42843394900632 200.88665328241188 H 0.0 **** 0.06
34940 H 98.71291375093372 167.58484032974604 199.86392597732163 H 0.0 **** 0.06
34941 C 168.04978959139925 246.19126919829984 218.38317437159952 C 0.0 **** -0.24
34942 H 168.27400621636647 246.82331923890644 219.24249981708877 H 0.0 **** 0.06
34943 H 166.96981640341173 246.14503909066417 218.23889938749997 H 0.0 **** 0.06
34944 H 168.4365882475502 245.1875168934897 218.55985963314367 H 0.0 **** 0.06
34945 H 168.51808819840403 246.60971985697014 217.49351150928234 H 0.0 **** 0.06
34946 C 222.31060248054615 149.47267140370778 229.44819301912966 C 0.0 **** -0.24
34947 H 222.37246235741833 149.2705475179357 228.37917671738685 H 0.0 **** 0.06
34948 H 221.62550857452482 148.76310130657546 229.91354148942176 H 0.0 **** 0.06
34949 H 221.94633590373545 150.48697984358327 229.60575507573893 H 0.0 **** 0.06
34950 H 223.29940508161965 149.36809155464087 229.8949637007761 H 0.0 **** 0.06
34951 C 7.705342548795386 136.08837991783858 217.95705551471957 C 0.0 **** -0.24
34952 H 6.911054004590682 136.59028987880552 218.50885680213548 H 0.0 **** 0.06
34953 H 7.349794446076487 135.83479725326146 216.9586037415836 H 0.0 **** 0.06
34954 H 7.992866318014933 135.17734805569154 218.4828497778459 H 0.0 **** 0.06
34955 H 8.567583117434808 136.75048784317198 217.8787109878006 H 0.0 **** 0.06
34956 C 33.75513250515786 2.7763437077685182 39.57372764094163 C 0.0 **** -0.24
34957 H 34.55846566457666 2.3195633020767445 40.15079267561117 H 0.0 **** 0.06
34958 H 32.9123270225661 2.086545894587715 39.516225661804754 H 0.0 **** 0.06
34959 H 34.111394118802934 2.9989891462952016 38.568306220231136 H 0.0 **** 0.06
34960 H 33.43720605430343 3.6990922525829717 40.05903420752958 H 0.0 **** 0.06
34961 C 187.33008862594397 69.57325233715551 149.2964707638764 C 0.0 **** -0.24
34962 H 187.9741656840691 68.69376110074924 149.2823116113641 H 0.0 **** 0.06
34963 H 186.82537571629973 69.66847630868227 148.33399745871455 H 0.0 **** 0.06
34964 H 187.93401123402344 70.46227871953533 149.48063686485355 H 0.0 **** 0.06
34965 H 186.58766145364336 69.46758525081478 150.08683075737824 H 0.0 **** 0.06
34966 C 193.55416389019723 211.0078047760158 49.21382265281605 C 0.0 **** -0.24
34967 H 194.3267957109036 210.6251398511506 49.881449198009676 H 0.0 **** 0.06
34968 H 193.18464827835288 211.96065515834292 49.59444575064562 H 0.0 **** 0.06
34969 H 192.73184693244963 210.29373589324564 49.16290088478871 H 0.0 **** 0.06
34970 H 193.97333970657462 211.1512841766042 48.21784982832514 H 0.0 **** 0.06
34971 C 5.833863160265793 56.8073853879184 201.10652774731733 C 0.0 **** -0.24
34972 H 6.3849109159858415 56.558199835631484 200.19926730623115 H 0.0 **** 0.06
34973 H 6.118538180117895 56.12081929349412 201.9042950738905 H 0.0 **** 0.06
34974 H 4.764376735844735 56.72019248400969 200.91711352782437 H 0.0 **** 0.06
34975 H 6.067965995480762 57.82928470808636 201.4045448760738 H 0.0 **** 0.06
34976 C 120.57518747769885 156.8298859842768 75.55978365495133 C 0.0 **** -0.24
34977 H 120.53274789997144 156.8948856236254 74.47307739886315 H 0.0 **** 0.06
34978 H 121.59230917153181 156.5890784636071 75.86975264029428 H 0.0 **** 0.06
34979 H 119.89596146156464 156.04920713366 75.90387394978697 H 0.0 **** 0.06
34980 H 120.27904000347871 157.78526786805998 75.9929795677227 H 0.0 **** 0.06
34981 C 147.45604854588643 152.32320400066757 237.47285990703205 C 0.0 **** -0.24
34982 H 147.9053754329354 152.48707282934546 236.49357704640872 H 0.0 **** 0.06
34983 H 147.20991900646712 151.2677480548925 237.58716896546497 H 0.0 **** 0.06
34984 H 146.54849540030887 152.92027715057182 237.5603499507942 H 0.0 **** 0.06
34985 H 148.16115708381972 152.61863921193094 238.2495790012513 H 0.0 **** 0.06
34986 C 71.24211971613565 224.84765984975937 184.8291600829792 C 0.0 **** -0.24
34987 H 72.27987557775816 225.01556871395047 185.11836236604952 H 0.0 **** 0.06
34988 H 70.69846351715378 224.40907175226457 185.66531316530222 H 0.0 **** 0.06
34989 H 71.20820776759501 224.1696448218373 183.97648771402163 H 0.0 **** 0.06
34990 H 70.78398174132874 225.798590638521 184.55513670580507 H 0.0 **** 0.06
34991 C 128.77076712539852 120.01374719851435 248.21173157086832 C 0.0 **** -0.24
34992 H 129.5492465185814 119.39191385424417 247.76938815445385 H 0.0 **** 0.06
34993 H 128.7344167280746 119.83865526780289 249.2874722664452 H 0.0 **** 0.06
34994 H 127.80800230300602 119.76149868280339 247.7686885258131 H 0.0 **** 0.06
34995 H 128.99429810256615 121.0641354730461 248.02099888044233 H 0.0 **** 0.06
34996 C 198.18356947633993 180.2475259112924 207.72834286534018 C 0.0 **** -0.24
34997 H 198.0262148528878 179.33934022760417 208.3098880932514 H 0.0 **** 0.06
34998 H 197.2218353526826 180.6296528612949 207.38465689241775 H 0.0 **** 0.06
34999 H 198.81553473564605 180.0248672093794 206.86917898517873 H 0.0 **** 0.06
35000 H 198.6697794699507 180.99804093695718 208.35186881578232 H 0.0 **** 0.06
35001 C 50.13909628237258 129.69728698372586 17.344116200139695 C 0.0 **** -0.24
35002 H 49.97516315633328 130.77357187298503 17.3152662980645 H 0.0 **** 0.06
35003 H 49.23898550174221 129.18377163170854 17.006403106849405 H 0.0 **** 0.06
35004 H 50.369971138022095 129.39265494143035 18.365504324662027 H 0.0 **** 0.06
35005 H 50.97278645443815 129.43799123733794 16.69046874482018 H 0.0 **** 0.06
35006 C 199.35200082815996 52.222774305629855 42.27403694913936 C 0.0 **** -0.24
35007 H 199.53608659304564 51.63538645665834 43.173103969243584 H 0.0 **** 0.06
35008 H 198.73975787397765 51.64510155192389 41.58171525993809 H 0.0 **** 0.06
35009 H 200.30199034455438 52.470084264232 41.80090032372445 H 0.0 **** 0.06
35010 H 198.82928782156594 53.141516018761564 42.54192564964174 H 0.0 **** 0.06
35011 C 182.62631617355783 223.56637648393792 187.3302058381955 C 0.0 **** -0.24
35012 H 182.83380415959297 224.49356105380548 187.8644624044546 H 0.0 **** 0.06
35013 H 181.70298825539822 223.67573308480047 186.76049427273816 H 0.0 **** 0.06
35014 H 182.51861941966774 222.75169808484682 188.0455253985276 H 0.0 **** 0.06
35015 H 183.44972534778992 223.34733243293633 186.6505378288706 H 0.0 **** 0.06
35016 C 213.57742907840935 209.8344173649565 206.4946243356662 C 0.0 **** -0.24
35017 H 213.05457255603918 208.88230827322172 206.58719812780288 H 0.0 **** 0.06
35018 H 213.5752767317896 210.14925211672983 205.45059032014603 H 0.0 **** 0.06
35019 H 214.60538159219143 209.717910187943 206.83754309243295 H 0.0 **** 0.06
35020 H 213.0745458868052 210.58525087924704 207.10261288888816 H 0.0 **** 0.06
35021 C 123.74039307072508 151.60086879443818 113.6505144789233 C 0.0 **** -0.24
35022 H 123.01634864957336 152.24685116290536 114.14743904909093 H 0.0 **** 0.06
35023 H 123.52056421714184 151.56297690752987 112.58325347244576 H 0.0 **** 0.06
35024 H 123.67997817703585 150.59767258067836 114.07091661212013 H 0.0 **** 0.06
35025 H 124.74411915100569 151.9979727997528 113.80174917424907 H 0.0 **** 0.06
35026 C 241.32683924004425 186.6804113953765 202.46766278328656 C 0.0 **** -0.24
35027 H 240.3668686865198 186.63841963037433 202.98344646772904 H 0.0 **** 0.06
35028 H 241.3837165552058 185.8714373156673 201.73981975633694 H 0.0 **** 0.06
35029 H 242.13386868396998 186.57447670574737 203.19364205396874 H 0.0 **** 0.06
35030 H 241.42166886116314 187.63841973345592 201.956034069854 H 0.0 **** 0.06
35031 C 65.23259529572778 14.904923777041034 92.14119617540501 C 0.0 **** -0.24
35032 H 66.05744644858996 15.273845277591334 92.75031608587662 H 0.0 **** 0.06
35033 H 65.40914901065827 13.860909883978564 91.88392134505006 H 0.0 **** 0.06
35034 H 65.16074303168534 15.49822208800245 91.22975998275956 H 0.0 **** 0.06
35035 H 64.30110528387911 14.987949470512575 92.70374189759687 H 0.0 **** 0.06
35036 C 161.2151850847356 17.2476084575394 13.902929031537923 C 0.0 **** -0.24
35037 H 161.75716542307367 17.424137973784056 12.97388855286411 H 0.0 **** 0.06
35038 H 161.35258148016945 18.097213634174366 14.571246947006756 H 0.0 **** 0.06
35039 H 161.5954340854363 16.343543937642863 14.379171214129968 H 0.0 **** 0.06
35040 H 160.15414494172649 17.123942423622566 13.685551253311388 H 0.0 **** 0.06
35041 C 97.36888753957635 7.685255317322657 142.31086582697748 C 0.0 **** -0.24
35042 H 98.05334649856229 7.906492577270541 143.1291656296331 H 0.0 **** 0.06
35043 H 97.42932897108619 8.475745298129567 141.56272881147848 H 0.0 **** 0.06
35044 H 96.35063738779897 7.626635245641097 142.69543946788187 H 0.0 **** 0.06
35045 H 97.64152618970977 6.732271840076663 141.85682151957366 H 0.0 **** 0.06
35046 C 203.61659087240452 230.01136300393458 135.0355059415828 C 0.0 **** -0.24
35047 H 204.46291320529085 229.77417285923616 134.39018127789532 H 0.0 **** 0.06
35048 H 203.6759290249251 231.0553959862844 135.3427105680258 H 0.0 **** 0.06
35049 H 203.64246928340611 229.369524881236 135.9167026910026 H 0.0 **** 0.06
35050 H 202.68687305218157 229.84408449200131 134.4917125590119 H 0.0 **** 0.06
35051 C 35.81042557760372 119.71766441730608 118.73171488122813 C 0.0 **** -0.24
35052 H 35.43777816481729 119.78002637095511 119.75461539987975 H 0.0 **** 0.06
35053 H 36.64896385997298 120.40286907524288 118.60837108329352 H 0.0 **** 0.06
35054 H 35.01428846252274 119.98861596951053 118.0382521787252 H 0.0 **** 0.06
35055 H 36.139897700381695 118.69919004444068 118.52680358692257 H 0.0 **** 0.06
35056 C 0.6213748186398504 106.8191858779802 199.5946804871625 C 0.0 **** -0.24
35057 H 1.1846029067020538 106.40520491397285 198.75867423983766 H 0.0 **** 0.06
35058 H -0.16613713443081224 106.12284366241747 199.88297549651782 H 0.0 **** 0.06
35059 H 0.1773273115468612 107.76961867007799 199.29892402157338 H 0.0 **** 0.06
35060 H 1.2922969539737608 106.97948757518895 200.43960382041712 H 0.0 **** 0.06
35061 C 10.894078047828373 203.78941690912976 200.67802838401417 C 0.0 **** -0.24
35062 H 10.12681901972681 204.13665100439465 199.985242957843 H 0.0 **** 0.06
35063 H 11.736923655266295 204.48020507980476 200.66314378219602 H 0.0 **** 0.06
35064 H 11.231299256583867 202.79745052639964 200.37769337250018 H 0.0 **** 0.06
35065 H 10.479954490736063 203.7429131215111 201.68499990390427 H 0.0 **** 0.06
35066 C 180.09662009150475 143.38825189667673 41.6909655321559 C 0.0 **** -0.24
35067 H 181.13680581679907 143.38555423732757 42.0173456060308 H 0.0 **** 0.06
35068 H 179.7439856818693 144.41685088123933 41.61138113057865 H 0.0 **** 0.06
35069 H 179.48735001257037 142.851211042258 42.418027195295664 H 0.0 **** 0.06
35070 H 180.01828422988768 142.8998034167505 40.720689733572 H 0.0 **** 0.06
35071 C 218.3829123764037 167.9491512423247 23.431062580197448 C 0.0 **** -0.24
35072 H 218.92941259858713 168.38367175453226 22.593571679907285 H 0.0 **** 0.06
35073 H 217.65473345555148 167.23049924510238 23.05496640145438 H 0.0 **** 0.06
35074 H 217.8659054005601 168.73964959976797 23.975136751442932 H 0.0 **** 0.06
35075 H 219.08122739495315 167.44464577464825 24.09825215543387 H 0.0 **** 0.06
35076 C 97.53721798249953 83.87446315413189 96.21362228225254 C 0.0 **** -0.24
35077 H 96.7234176801619 84.50661524773938 95.8582107341706 H 0.0 **** 0.06
35078 H 97.95232626522989 84.2983466644707 97.12883016403842 H 0.0 **** 0.06
35079 H 98.31466023097599 83.82077735039596 95.45175487233797 H 0.0 **** 0.06
35080 H 97.15657594817725 82.87309716259466 96.41689886708926 H 0.0 **** 0.06
35081 C 211.07146912356257 33.5177836764216 27.27987364935771 C 0.0 **** -0.24
35082 H 210.26616102713683 33.63905983492211 28.00399209763961 H 0.0 **** 0.06
35083 H 212.03141832007876 33.547575035081735 27.795869375463298 H 0.0 **** 0.06
35084 H 211.0269932637791 34.325224569211144 26.54845469999364 H 0.0 **** 0.06
35085 H 210.96195643184552 32.560008453944164 26.771369804074965 H 0.0 **** 0.06
35086 C 13.054362074324672 242.16690762173516 115.95372250087459 C 0.0 **** -0.24
35087 H 12.291456968541908 242.48258850745805 115.2411897230547 H 0.0 **** 0.06
35088 H 13.179163478193473 241.0855403480467 115.89640758883667 H 0.0 **** 0.06
35089 H 12.746409321524467 242.4447701944316 116.96161786239546 H 0.0 **** 0.06
35090 H 13.998949442137018 242.65485997499562 115.71399396325998 H 0.0 **** 0.06
35091 C 16.957200830657683 182.72504981014214 137.01074686089825 C 0.0 **** -0.24
35092 H 16.62127506695505 181.9843608817416 137.73547325614604 H 0.0 **** 0.06
35093 H 17.94815977621205 182.4540681134638 136.64649027900614 H 0.0 **** 0.06
35094 H 17.000285164343097 183.70452154942495 137.48775883937253 H 0.0 **** 0.06
35095 H 16.259010889115856 182.7583569361795 136.17414061319434 H 0.0 **** 0.06
35096 C 16.292620266756813 124.5655516629433 98.11305660632627 C 0.0 **** -0.24
35097 H 16.176983114064143 124.02352325243788 99.05252924374932 H 0.0 **** 0.06
35098 H 16.80083650781333 125.51161391991636 98.30101679521849 H 0.0 **** 0.06
35099 H 15.309668573764299 124.76003520545663 97.68376685338023 H 0.0 **** 0.06
35100 H 16.881042449939656 123.96643064498639 97.41849566273979 H 0.0 **** 0.06
35101 C 4.325657501610664 225.09469163049147 224.71820817020617 C 0.0 **** -0.24
35102 H 4.193067250153348 224.30863504456144 225.460785052514 H 0.0 **** 0.06
35103 H 4.613501313105246 224.65018134659053 223.76544108545943 H 0.0 **** 0.06
35104 H 5.105580436919382 225.78086250612841 225.0500761026746 H 0.0 **** 0.06
35105 H 3.3895985207336423 225.6404054733821 224.59722651726514 H 0.0 **** 0.06
35106 C 114.86539022458908 94.60070769401375 30.072795587855325 C 0.0 **** -0.24
35107 H 114.875478703001 94.93018549840997 31.112118528688 H 0.0 **** 0.06
35108 H 115.52446539537507 93.74017996242694 29.9593341047144 H 0.0 **** 0.06
35109 H 115.21330122416418 95.41140398145592 29.43180023287053 H 0.0 **** 0.06
35110 H 113.85112830793764 94.32285512007388 29.78929732843889 H 0.0 **** 0.06
35111 C 94.10732631158967 116.33936434477704 128.84042203912236 C 0.0 **** -0.24
35112 H 94.90094863220372 116.43062695547363 128.0991634387945 H 0.0 **** 0.06
35113 H 94.54615548442581 116.18709701826313 129.8262172419934 H 0.0 **** 0.06
35114 H 93.47298014965989 115.48833304192706 128.58933589262944 H 0.0 **** 0.06
35115 H 93.50833964005813 117.24924722116452 128.84507756465987 H 0.0 **** 0.06
35116 C 40.17657167737511 25.48221217945772 126.96856102607038 C 0.0 **** -0.24
35117 H 39.575826518681225 25.390848042687807 127.8732595472155 H 0.0 **** 0.06
35118 H 41.204706029036785 25.189548592813495 127.18522981519686 H 0.0 **** 0.06
35119 H 40.15774475364532 26.515275838590014 126.62257607817108 H 0.0 **** 0.06
35120 H 39.76875200999726 24.83212692407139 126.19500828644576 H 0.0 **** 0.06
35121 C 15.911995611935652 159.40302681487137 134.49592371218188 C 0.0 **** -0.24
35122 H 16.193325656875487 160.4068527356561 134.17726323752032 H 0.0 **** 0.06
35123 H 16.714841495551227 158.70653747184613 134.25181582124654 H 0.0 **** 0.06
35124 H 15.000107559761176 159.10088053904087 133.981577165226 H 0.0 **** 0.06
35125 H 15.740811501575749 159.3982243212547 135.57224406526007 H 0.0 **** 0.06
35126 C 12.123259981412772 102.76614342252995 11.885609335257257 C 0.0 **** -0.24
35127 H 11.334968064770763 103.51816620242616 11.868634258326693 H 0.0 **** 0.06
35128 H 12.934187224946683 103.10368009277917 12.53036243729845 H 0.0 **** 0.06
35129 H 12.501591449356496 102.61423918182683 10.874524781444293 H 0.0 **** 0.06
35130 H 11.720637455447772 101.82804597716174 12.267479538613344 H 0.0 **** 0.06
35131 C 99.04024428314557 101.43808430101942 109.70531250325357 C 0.0 **** -0.24
35132 H 99.60837930717881 101.2326587343687 108.79917759046538 H 0.0 **** 0.06
35133 H 98.04232406398145 101.00740266297933 109.61490152187488 H 0.0 **** 0.06
35134 H 98.96045688178083 102.51523661572625 109.84810052773403 H 0.0 **** 0.06
35135 H 99.55062168452932 100.99494097348972 110.56150961041729 H 0.0 **** 0.06
35136 C 117.67181283493932 93.58079269910868 111.89702025533202 C 0.0 **** -0.24
35137 H 117.77066086075433 93.5936051630735 110.81120927473805 H 0.0 **** 0.06
35138 H 118.44062916161283 94.21523700630209 112.33918250579032 H 0.0 **** 0.06
35139 H 117.78858413014356 92.56060257689836 112.26058198817617 H 0.0 **** 0.06
35140 H 116.68585161199366 93.95588208181388 112.17510119809506 H 0.0 **** 0.06
35141 C 223.0561454744472 9.557294613973824 161.43706126740125 C 0.0 **** -0.24
35142 H 223.8210855053993 10.118786643392156 160.90196968119307 H 0.0 **** 0.06
35143 H 222.08036415209398 9.76271729799086 160.99648221167075 H 0.0 **** 0.06
35144 H 223.05189665290723 9.855630766860685 162.485878251233 H 0.0 **** 0.06
35145 H 223.26982078104982 8.4910964920185 161.3635970277212 H 0.0 **** 0.06
35146 C 79.91911083965147 155.02375563343315 147.16027159130755 C 0.0 **** -0.24
35147 H 80.29520831111142 155.02288968203828 148.1829135143716 H 0.0 **** 0.06
35148 H 80.1322814748439 155.9875384838001 146.69614608829525 H 0.0 **** 0.06
35149 H 78.84233523450607 154.8546040089455 147.16843206708194 H 0.0 **** 0.06
35150 H 80.40764614597563 154.23127884794695 146.59306230805078 H 0.0 **** 0.06
35151 C 28.393296150407792 194.09917242952108 199.8299657191105 C 0.0 **** -0.24
35152 H 27.962484498319753 195.0675593341427 200.0837287762606 H 0.0 **** 0.06
35153 H 28.38729229744753 193.45731216692425 200.7117122471368 H 0.0 **** 0.06
35154 H 29.41897056467434 194.23666387979912 199.48759798360277 H 0.0 **** 0.06
35155 H 27.804360763223357 193.63585191727753 199.03917069529948 H 0.0 **** 0.06
35156 C 90.47677350111519 47.57769172651393 130.41338883207553 C 0.0 **** -0.24
35157 H 89.96489172151996 48.32261737293892 131.02169416911195 H 0.0 **** 0.06
35158 H 89.78111795642849 47.170873465605084 129.67863795836521 H 0.0 **** 0.06
35159 H 90.84133990959455 46.77373387937459 131.05273199661846 H 0.0 **** 0.06
35160 H 91.31710216195077 48.04324011863868 129.89910292096945 H 0.0 **** 0.06
35161 C 109.30618117183582 89.5085297737165 186.0437601475982 C 0.0 **** -0.24
35162 H 109.00159644471677 88.97358321402075 185.14458114145023 H 0.0 **** 0.06
35163 H 109.4182444286482 88.80152503797078 186.86679521106382 H 0.0 **** 0.06
35164 H 108.54759495721109 90.24877772530954 186.30020800729508 H 0.0 **** 0.06
35165 H 110.25728885676722 90.0102331175649 185.86345623058375 H 0.0 **** 0.06
35166 C 147.1869520323453 80.5263996224717 87.28372234781207 C 0.0 **** -0.24
35167 H 146.16369913420257 80.1608703191092 87.36982927893638 H 0.0 **** 0.06
35168 H 147.6420990809398 80.56766183611023 88.27312275196675 H 0.0 **** 0.06
35169 H 147.181093514972 81.5234245840214 86.84424827077922 H 0.0 **** 0.06
35170 H 147.76070392042504 79.85266633728767 86.64774766652087 H 0.0 **** 0.06
35171 C 194.64444226088227 27.345019720950546 40.1485690080402 C 0.0 **** -0.24
35172 H 193.86482593713453 27.72246002700696 39.48699378886596 H 0.0 **** 0.06
35173 H 194.69157513526295 26.258207665190866 40.069621991724915 H 0.0 **** 0.06
35174 H 194.41523201429214 27.624395371483615 41.17600098112621 H 0.0 **** 0.06
35175 H 195.60443487844026 27.77253388193519 39.8606864330994 H 0.0 **** 0.06
35176 C 112.84618899216872 156.89486653705117 104.8856601364599 C 0.0 **** -0.24
35177 H 111.83869546782174 156.48002783710268 104.85187815661837 H 0.0 **** 0.06
35178 H 112.82425141956068 157.93308917678618 104.55266903496238 H 0.0 **** 0.06
35179 H 113.49928114374174 156.316542396906 104.23173093196681 H 0.0 **** 0.06
35180 H 113.22350892652435 156.84820747707576 105.90757900591245 H 0.0 **** 0.06
35181 C 161.24985002828512 220.44874174224162 102.60809003235019 C 0.0 **** -0.24
35182 H 161.9223095738327 220.10841951295936 103.39590950059181 H 0.0 **** 0.06
35183 H 161.67568212767128 220.20065972459776 101.63580822867914 H 0.0 **** 0.06
35184 H 161.11933071259438 221.52804844943716 102.68379541440379 H 0.0 **** 0.06
35185 H 160.28286946562628 219.95714522480733 102.71905864771503 H 0.0 **** 0.06
35186 C 174.73713390383836 135.74625187389992 160.19715926245053 C 0.0 **** -0.24
35187 H 173.98204376396558 135.88078513371906 159.42131825293546 H 0.0 **** 0.06
35188 H 175.65509322393342 136.25538128897804 159.90325197132054 H 0.0 **** 0.06
35189 H 174.93623856727993 134.68273266371213 160.3294082420839 H 0.0 **** 0.06
35190 H 174.37155697624848 136.16612921914322 161.13452637242847 H 0.0 **** 0.06
35191 C 209.51826073643264 120.88011248916015 121.6615553487402 C 0.0 **** -0.24
35192 H 210.50437208766 121.30216466844044 121.47004054142687 H 0.0 **** 0.06
35193 H 208.9854601170582 120.7582910892034 120.71819294706899 H 0.0 **** 0.06
35194 H 208.95697605494723 121.55032380212123 122.31280942652103 H 0.0 **** 0.06
35195 H 209.62623468606517 119.90967039687553 122.14517847994406 H 0.0 **** 0.06
35196 C 227.1971935949321 97.56085805893827 228.0117346630322 C 0.0 **** -0.24
35197 H 226.7245598999943 98.2386686509791 227.3018144223975 H 0.0 **** 0.06
35198 H 227.90122111726288 96.91592172209442 227.48449662131347 H 0.0 **** 0.06
35199 H 226.43355331402591 96.94834529588454 228.49253422522406 H 0.0 **** 0.06
35200 H 227.72806817690457 98.13846983466402 228.76799148240605 H 0.0 **** 0.06
35201 C 179.3427401209595 240.74182656299817 175.37427337354146 C 0.0 **** -0.24
35202 H 178.4802897165432 240.6351280575001 176.03175515421034 H 0.0 **** 0.06
35203 H 179.23151426241967 241.64336267874816 174.77275695786872 H 0.0 **** 0.06
35204 H 179.4092439266833 239.8728029392673 174.7189774378148 H 0.0 **** 0.06
35205 H 180.2496335555592 240.81494774004952 175.97449180080773 H 0.0 **** 0.06
35206 C 20.353171881058273 230.46308080445903 64.32692324457216 C 0.0 **** -0.24
35207 H 21.37367702806901 230.08217265735962 64.29188335281509 H 0.0 **** 0.06
35208 H 20.188397386643004 230.97210271250077 65.27692726487658 H 0.0 **** 0.06
35209 H 19.65300570303421 229.63272501866157 64.23257195263386 H 0.0 **** 0.06
35210 H 20.198775430027098 231.16317716103833 63.5064889775135 H 0.0 **** 0.06
35211 C 246.92659648411558 9.597753597268564 69.29154186099043 C 0.0 **** -0.24
35212 H 247.5678318204375 9.58211895924157 68.41046220116522 H 0.0 **** 0.06
35213 H 247.54280135685218 9.559671231336921 70.18953398338346 H 0.0 **** 0.06
35214 H 246.2601924340423 8.73515785804031 69.2710526816939 H 0.0 **** 0.06
35215 H 246.3354142242843 10.514227474773776 69.29372118380576 H 0.0 **** 0.06
35216 C 193.215954946164 74.14214290795783 35.38349039895323 C 0.0 **** -0.24
35217 H 192.71340062993704 74.88184672116279 36.007383823689295 H 0.0 **** 0.06
35218 H 192.86387770906344 74.23313463649433 34.356084592776085 H 0.0 **** 0.06
35219 H 192.99477924954437 73.14279668274614 35.75673293529344 H 0.0 **** 0.06
35220 H 194.29256506310776 74.31257460567824 35.41580559750203 H 0.0 **** 0.06
35221 C 31.895811685465077 101.53818524387529 230.06681306447507 C 0.0 **** -0.24
35222 H 31.837483649678802 102.23042211601049 230.9063269208776 H 0.0 **** 0.06
35223 H 31.742057663212492 100.51976230221578 230.42525133432238 H 0.0 **** 0.06
35224 H 32.876621346501906 101.61523337531727 229.59875799018204 H 0.0 **** 0.06
35225 H 31.124921220520605 101.78762776011541 229.33739487474628 H 0.0 **** 0.06
35226 C 104.1723814041938 84.71236775566021 201.53494894974233 C 0.0 **** -0.24
35227 H 103.56495461823715 84.59515848293094 202.43297359605037 H 0.0 **** 0.06
35228 H 103.52137395025503 84.78356277582145 200.6635213080752 H 0.0 **** 0.06
35229 H 104.83147861526635 83.8517369682786 201.42788790095727 H 0.0 **** 0.06
35230 H 104.77033698724887 85.61985283269635 201.61794005402066 H 0.0 **** 0.06
35231 C 214.06213662803367 160.7435667947343 219.69732275697285 C 0.0 **** -0.24
35232 H 214.31482811505862 159.97516926498116 218.96665606258856 H 0.0 **** 0.06
35233 H 214.77531638619598 161.5650382344013 219.62189805668865 H 0.0 **** 0.06
35234 H 214.101766702749 160.31752886046291 220.70027326094637 H 0.0 **** 0.06
35235 H 213.05686863922728 161.11583049800956 219.49978902427748 H 0.0 **** 0.06
35236 C 169.56288152541865 162.19952981096162 31.750639518956262 C 0.0 **** -0.24
35237 H 170.19649776270703 163.07411755840377 31.903869156960496 H 0.0 **** 0.06
35238 H 170.08436072523475 161.30752990256713 32.100027830100004 H 0.0 **** 0.06
35239 H 169.33598522273937 162.0967078596579 30.690643170236598 H 0.0 **** 0.06
35240 H 168.6354761246324 162.3212505810917 32.3113585728951 H 0.0 **** 0.06
35241 C 228.40788070032545 165.24347337625028 22.71077195591093 C 0.0 **** -0.24
35242 H 228.8432795505255 164.24970403255324 22.81856763449437 H 0.0 **** 0.06
35243 H 227.3388196746073 165.19669127343337 22.917918102628363 H 0.0 **** 0.06
35244 H 228.56663596637736 165.60018855985894 21.69300301637449 H 0.0 **** 0.06
35245 H 228.885686542008 165.9266572859384 23.41401224677307 H 0.0 **** 0.06
35246 C 195.3000572806041 129.80402538283832 57.53035010557335 C 0.0 **** -0.24
35247 H 195.55490198747734 129.96913706819893 56.48363434995804 H 0.0 **** 0.06
35248 H 194.382882996474 130.34189444885953 57.770018142534326 H 0.0 **** 0.06
35249 H 196.11047968882724 130.1660553147899 58.162491238031265 H 0.0 **** 0.06
35250 H 195.15332082277484 128.7375765398553 57.70421170496445 H 0.0 **** 0.06
35251 C 223.09720475968552 202.88177334181984 135.8929922731816 C 0.0 **** -0.24
35252 H 223.67031847789272 203.7742572325639 136.14534469605468 H 0.0 **** 0.06
35253 H 223.1424806274889 202.1744054317361 136.72089945527898 H 0.0 **** 0.06
35254 H 223.517914340138 202.42153327580337 134.99803578497338 H 0.0 **** 0.06
35255 H 222.05883084008832 203.15709113829183 135.70558284645284 H 0.0 **** 0.06
35256 C 118.45219175997116 116.40026570988908 182.2926697460898 C 0.0 **** -0.24
35257 H 119.05034552499606 115.52404651522568 182.04280465417844 H 0.0 **** 0.06
35258 H 118.52287667789005 117.12976533578123 181.48552507964354 H 0.0 **** 0.06
35259 H 118.82495166724644 116.84333221154463 183.21668527898998 H 0.0 **** 0.06
35260 H 117.41163112718368 116.1047942462935 182.42605921497858 H 0.0 **** 0.06
35261 C 182.48951063145498 205.25791092214496 212.207804753942 C 0.0 **** -0.24
35262 H 183.28906850663776 205.96319608405838 212.43300601321158 H 0.0 **** 0.06
35263 H 181.54746666649763 205.7980421546472 212.10315290894323 H 0.0 **** 0.06
35264 H 182.4045940126527 204.53380336369912 213.01889352430806 H 0.0 **** 0.06
35265 H 182.7152928846465 204.73615356395047 211.27764067949295 H 0.0 **** 0.06
35266 C 18.602449045110205 21.403546136988496 47.839270851269845 C 0.0 **** -0.24
35267 H 19.567701738952593 20.903732644129548 47.75388182737285 H 0.0 **** 0.06
35268 H 18.488380081042664 21.80270596083966 48.84803063108447 H 0.0 **** 0.06
35269 H 17.80457701918087 20.688154442556822 47.63928203773716 H 0.0 **** 0.06
35270 H 18.54980131848893 22.21828975762429 47.11758143616882 H 0.0 **** 0.06
35271 C 194.8134980016741 142.39470894225516 233.3813685437357 C 0.0 **** -0.24
35272 H 194.99726266484276 143.40890637899759 233.73620890028138 H 0.0 **** 0.06
35273 H 194.03481127667382 142.41187944318298 232.61831826035825 H 0.0 **** 0.06
35274 H 194.49006248856105 141.77119404503674 234.2155700914809 H 0.0 **** 0.06
35275 H 195.72996406181267 141.9861119705748 232.95674396213803 H 0.0 **** 0.06
35276 C 136.327795619969 84.31497103766031 129.71865682119352 C 0.0 **** -0.24
35277 H 137.29545465953566 83.81337485599903 129.73556315619945 H 0.0 **** 0.06
35278 H 135.9412896031841 84.39293957347326 130.73525240624605 H 0.0 **** 0.06
35279 H 135.630952654856 83.74044667373917 129.10730649683592 H 0.0 **** 0.06
35280 H 136.44274551896453 85.31286073680414 129.2958859204512 H 0.0 **** 0.06
35281 C 86.62258020480562 175.57717522603542 62.59410284260895 C 0.0 **** -0.24
35282 H 86.85510083489115 176.5032461156137 62.06909291376709 H 0.0 **** 0.06
35283 H 85.81528387879729 175.75499641172507 63.30546621633596 H 0.0 **** 0.06
35284 H 87.50770060078543 175.23116067099699 63.128091965514955 H 0.0 **** 0.06
35285 H 86.31273416951313 174.8195030597676 61.874602398882786 H 0.0 **** 0.06
35286 C 223.89685741760735 63.55211101152412 38.122985469635665 C 0.0 **** -0.24
35287 H 223.49295897151904 62.949457934462345 37.308938854438196 H 0.0 **** 0.06
35288 H 224.82752374889517 64.02034593648608 37.80152348131608 H 0.0 **** 0.06
35289 H 224.08867425745507 62.9147257575201 38.98658775910886 H 0.0 **** 0.06
35290 H 223.17665358409604 64.32452560363782 38.39482129499302 H 0.0 **** 0.06
35291 C 221.2630161175756 215.34925141551145 40.79095039379715 C 0.0 **** -0.24
35292 H 221.33343257951515 215.0977644967108 41.84918355346204 H 0.0 **** 0.06
35293 H 220.612447554845 216.2151444756405 40.666385845111705 H 0.0 **** 0.06
35294 H 220.850966673978 214.50233127945245 40.24317023837918 H 0.0 **** 0.06
35295 H 222.25630909101153 215.58165596607557 40.40595458827019 H 0.0 **** 0.06
35296 C 92.85835691016072 13.51272574313893 198.88264266145373 C 0.0 **** -0.24
35297 H 92.16588721124876 12.688073280836733 199.05489135548027 H 0.0 **** 0.06
35298 H 92.56426234941588 14.36696968650017 199.49321882593424 H 0.0 **** 0.06
35299 H 92.83399057157706 13.79242964142648 197.82937318934628 H 0.0 **** 0.06
35300 H 93.86763313858958 13.201929991778428 199.15297776234308 H 0.0 **** 0.06
35301 C 12.746398466165886 106.68732963964533 89.4330633918448 C 0.0 **** -0.24
35302 H 12.982031203889335 107.55977649169131 90.04293163779172 H 0.0 **** 0.06
35303 H 12.656928077340481 106.98847142461452 88.38867732487381 H 0.0 **** 0.06
35304 H 11.804190000133062 106.25426773395824 89.76852897702796 H 0.0 **** 0.06
35305 H 13.541124467538353 105.94846500013892 89.5328190435215 H 0.0 **** 0.06
35306 C 123.4502241941602 61.702300505977604 7.676978649371563 C 0.0 **** -0.24
35307 H 122.9050690601814 61.99211247540589 6.779564332521929 H 0.0 **** 0.06
35308 H 124.1802198181584 60.9315791386052 7.426587861882993 H 0.0 **** 0.06
35309 H 122.75137403771657 61.314205236559644 8.417184079079789 H 0.0 **** 0.06
35310 H 123.96617544801603 62.57214219833699 8.085306112492034 H 0.0 **** 0.06
35311 C 147.52107357610427 186.89999952240325 247.3913605033929 C 0.0 **** -0.24
35312 H 148.15783316722113 186.34224010477578 246.70504918981197 H 0.0 **** 0.06
35313 H 147.47935568950209 187.9436855418913 247.0798806820356 H 0.0 **** 0.06
35314 H 147.93113807980362 186.83618023726189 248.39897489638184 H 0.0 **** 0.06
35315 H 146.5166628694708 186.4761787222181 247.37993091088487 H 0.0 **** 0.06
35316 C 244.8414391545443 225.13441635515676 142.02733223836913 C 0.0 **** -0.24
35317 H 244.01425599610576 225.77206998458 142.33855311867836 H 0.0 **** 0.06
35318 H 245.59390006885775 225.73846632459737 141.51988393506272 H 0.0 **** 0.06
35319 H 244.4713410194319 224.36701408844831 141.34630161066843 H 0.0 **** 0.06
35320 H 245.2842088104194 224.6598668674976 142.9024147339253 H 0.0 **** 0.06
35321 C 135.39364946182374 201.49894433690693 172.67190254848322 C 0.0 **** -0.24
35322 H 135.6734577268539 200.82969382377863 173.48548699684167 H 0.0 **** 0.06
35323 H 135.1997549224436 202.49415575428844 173.07105127282128 H 0.0 **** 0.06
35324 H 134.4945319423563 201.12132040515672 172.1846927126159 H 0.0 **** 0.06
35325 H 136.20638618439745 201.54847557517758 171.94749158639888 H 0.0 **** 0.06
35326 C 79.04447355670331 122.92999840632922 101.03333188913908 C 0.0 **** -0.24
35327 H 78.05585961169118 122.9463344117652 100.57551952246422 H 0.0 **** 0.06
35328 H 78.97553789297154 122.49682004617807 102.03138096381574 H 0.0 **** 0.06
35329 H 79.42917165788893 123.94721838426472 101.10463023178042 H 0.0 **** 0.06
35330 H 79.71808681134667 122.3290216303356 100.42155032871912 H 0.0 **** 0.06
35331 C 209.31927477957007 158.05384506418608 215.4861499876512 C 0.0 **** -0.24
35332 H 209.23391354709048 159.1229387547264 215.67766421278694 H 0.0 **** 0.06
35333 H 208.34040552108195 157.6528605581516 215.21948917494782 H 0.0 **** 0.06
35334 H 209.68591041634164 157.55243038626242 216.38259977034357 H 0.0 **** 0.06
35335 H 210.01723210057088 157.8859054559706 214.66541102582326 H 0.0 **** 0.06
35336 C 110.3281752375787 10.911816066512557 135.55005611389038 C 0.0 **** -0.24
35337 H 109.73192417503157 10.00720697325491 135.42823397542327 H 0.0 **** 0.06
35338 H 109.69288109919108 11.720228746614367 135.9126355813395 H 0.0 **** 0.06
35339 H 110.7614426061281 11.192936181006445 134.59002463491674 H 0.0 **** 0.06
35340 H 111.12694415630494 10.726048734391753 136.26830696491146 H 0.0 **** 0.06
35341 C 229.68981676352536 110.41877818432593 102.25808671128783 C 0.0 **** -0.24
35342 H 228.92026707732316 109.64710042630944 102.28736625474397 H 0.0 **** 0.06
35343 H 230.2528297015274 110.33444907655837 101.328279953155 H 0.0 **** 0.06
35344 H 230.36398465145126 110.29235609898268 103.10484563699976 H 0.0 **** 0.06
35345 H 229.2199490984522 111.40187889256231 102.31025913852392 H 0.0 **** 0.06
35346 C 93.39728018001281 64.30697797062777 130.8348293726798 C 0.0 **** -0.24
35347 H 93.11592923734065 65.284040639475 131.22680609514734 H 0.0 **** 0.06
35348 H 93.70775781923885 64.40905725704414 129.79457746470788 H 0.0 **** 0.06
35349 H 92.54360227446088 63.63105189227764 130.89511660735198 H 0.0 **** 0.06
35350 H 94.22227205661918 63.90464893298392 131.42267826271078 H 0.0 **** 0.06
35351 C 20.968876030926168 238.04693789377205 65.78458102355538 C 0.0 **** -0.24
35352 H 20.023731380090652 238.52442829480282 66.04318704756884 H 0.0 **** 0.06
35353 H 21.422239897391847 238.57143371887835 64.943335574662 H 0.0 **** 0.06
35354 H 20.786640855661034 237.00771442747947 65.51051077877793 H 0.0 **** 0.06
35355 H 21.640712761732544 238.08416631871142 66.64179162503677 H 0.0 **** 0.06
35356 C 62.91052702357749 96.37353465805961 169.22901411272534 C 0.0 **** -0.24
35357 H 63.23004562969666 97.40257141677361 169.06193393252113 H 0.0 **** 0.06
35358 H 61.828973940665946 96.34786031444085 169.36516231967295 H 0.0 **** 0.06
35359 H 63.3994717292766 95.98147586085008 170.12087259039475 H 0.0 **** 0.06
35360 H 63.1821281965716 95.76402328575503 168.36733130817305 H 0.0 **** 0.06
35361 C 116.63316180564235 34.25482996767934 219.28851207016075 C 0.0 **** -0.24
35362 H 116.75542254759372 34.509323271431285 220.34107182307233 H 0.0 **** 0.06
35363 H 116.99906837761202 35.07586336112554 218.67125270396573 H 0.0 **** 0.06
35364 H 115.57769126741579 34.082805330662495 219.07588553550426 H 0.0 **** 0.06
35365 H 117.20073290219597 33.35124907922254 219.06487798880562 H 0.0 **** 0.06
35366 C 28.508848688439727 155.72574960565507 103.8519427021528 C 0.0 **** -0.24
35367 H 27.774018301991546 155.6404658163057 103.05156057771225 H 0.0 **** 0.06
35368 H 27.994179143411756 155.84039688104437 104.80657186723417 H 0.0 **** 0.06
35369 H 29.14147204546495 156.594495404114 103.67331184655646 H 0.0 **** 0.06
35370 H 29.123826826618767 154.82659399326394 103.87687532158267 H 0.0 **** 0.06
35371 C 235.80263044028192 224.7697465946942 138.136391115792 C 0.0 **** -0.24
35372 H 235.03675657743526 224.41416816825654 138.82571453663863 H 0.0 **** 0.06
35373 H 236.68934444465208 225.06305754012186 138.6989242605696 H 0.0 **** 0.06
35374 H 235.4230062849747 225.62864813494048 137.58338188488037 H 0.0 **** 0.06
35375 H 236.06035460169747 223.97355176152013 137.4388414029954 H 0.0 **** 0.06
35376 C 199.75541247055568 124.6504923713326 148.52424694583064 C 0.0 **** -0.24
35377 H 200.1305685571979 125.30081176109127 149.31398308125375 H 0.0 **** 0.06
35378 H 199.1618294596808 123.84828198314369 148.964277950462 H 0.0 **** 0.06
35379 H 200.5954040366329 124.22262598441404 147.9764969128822 H 0.0 **** 0.06
35380 H 199.13397707227415 125.22936152151877 147.8407485002726 H 0.0 **** 0.06
35381 C 136.08142839032112 77.22719560868674 82.49490193300295 C 0.0 **** -0.24
35382 H 135.35178647052305 76.4293292011757 82.63737103497701 H 0.0 **** 0.06
35383 H 136.971897342814 77.0134948240252 83.0863210661332 H 0.0 **** 0.06
35384 H 135.64982417863726 78.17475384305078 82.81696832955649 H 0.0 **** 0.06
35385 H 136.3505996130373 77.29016224305352 81.44102925816316 H 0.0 **** 0.06
35386 C 26.095862015423748 179.13874864357888 224.8236406731029 C 0.0 **** -0.24
35387 H 25.87695843046528 178.66217581920102 225.77961982597782 H 0.0 **** 0.06
35388 H 26.329313169880777 180.19111713816608 224.98898180820794 H 0.0 **** 0.06
35389 H 25.227157745748784 179.05830638102094 224.17015578126413 H 0.0 **** 0.06
35390 H 26.94854279546439 178.64529422649872 224.3584914677872 H 0.0 **** 0.06
35391 C 245.8944146422924 225.1663244820399 74.72209506420432 C 0.0 **** -0.24
35392 H 246.15935440372238 226.1632400665045 75.0748482539598 H 0.0 **** 0.06
35393 H 245.53227192912772 225.22944639365375 73.69543939706764 H 0.0 **** 0.06
35394 H 245.11308436614786 224.75180735263365 75.35824293002295 H 0.0 **** 0.06
35395 H 246.7734149021922 224.52301759688083 74.7589102934655 H 0.0 **** 0.06
35396 C 55.487791367010914 17.36923701023521 62.76081944243953 C 0.0 **** -0.24
35397 H 55.21045395892625 17.13386003734948 63.7881890005263 H 0.0 **** 0.06
35398 H 55.9640444903076 18.34887823681605 62.729013889960385 H 0.0 **** 0.06
35399 H 54.59445521527334 17.378155974405786 62.13656105166473 H 0.0 **** 0.06
35400 H 56.181887220650424 16.614986267641513 62.39038276740905 H 0.0 **** 0.06
35401 C 138.1306273049822 55.717639847692084 19.144152266887716 C 0.0 **** -0.24
35402 H 137.09275317098744 55.38743606455998 19.08911297380405 H 0.0 **** 0.06
35403 H 138.20313880173737 56.579863470322124 19.805835016382005 H 0.0 **** 0.06
35404 H 138.4763835399115 55.99375373145526 18.147129029852607 H 0.0 **** 0.06
35405 H 138.74867858323867 54.908327114946786 19.532484706868175 H 0.0 **** 0.06
35406 C 72.51221756314172 202.56258101636485 7.656929495398714 C 0.0 **** -0.24
35407 H 72.12019688151483 202.19252671360712 6.709676010125662 H 0.0 **** 0.06
35408 H 72.07706491279964 203.53827534571838 7.874546869213617 H 0.0 **** 0.06
35409 H 73.59703794693584 202.65484670081037 7.59073762825949 H 0.0 **** 0.06
35410 H 72.25540484377296 201.86443366254497 8.453252961490477 H 0.0 **** 0.06
35411 C 122.66348599245723 102.92695295108553 190.7369522367425 C 0.0 **** -0.24
35412 H 122.98899988215905 103.55049691601823 191.56861934817462 H 0.0 **** 0.06
35413 H 123.23425659058725 103.18490452351182 189.8448768588832 H 0.0 **** 0.06
35414 H 121.60258398991775 103.09472630047082 190.5501592559349 H 0.0 **** 0.06
35415 H 122.82770378814647 101.87798230937827 190.98328671737556 H 0.0 **** 0.06
35416 C 243.97055551940312 91.10241145349028 43.24624763362229 C 0.0 **** -0.24
35417 H 243.6857699978137 90.52635933633931 44.126134969992876 H 0.0 **** 0.06
35418 H 243.86024104843904 90.48349176868226 42.35496668744955 H 0.0 **** 0.06
35419 H 245.00804631796166 91.42160405467334 43.340770046709366 H 0.0 **** 0.06
35420 H 243.32762324169602 91.97881600701206 43.16159706440547 H 0.0 **** 0.06
35421 C 108.83389380786127 246.48560450864244 98.831959103441 C 0.0 **** -0.24
35422 H 107.92795900638771 246.19142007928235 98.30182682937897 H 0.0 **** 0.06
35423 H 109.52531927885212 246.95870115386134 98.13443279238561 H 0.0 **** 0.06
35424 H 109.30290385490588 245.60332337070216 99.26714427699949 H 0.0 **** 0.06
35425 H 108.57842085117849 247.18998416806022 99.62425036489907 H 0.0 **** 0.06
35426 C 200.03255982187486 127.22370390891896 89.67597657914837 C 0.0 **** -0.24
35427 H 200.9771602587386 127.2118136071652 89.1316658130124 H 0.0 **** 0.06
35428 H 199.3382780411854 127.90499211341842 89.18275880419102 H 0.0 **** 0.06
35429 H 200.2077050376726 127.55847240579038 90.69830909553423 H 0.0 **** 0.06
35430 H 199.60855088875337 126.21937410738923 89.69024714074547 H 0.0 **** 0.06
35431 C 242.18981965037162 211.25184642933084 34.06303714730225 C 0.0 **** -0.24
35432 H 241.5032515744972 211.61322224565512 34.82747769334421 H 0.0 **** 0.06
35433 H 241.65177835398083 210.61023042257304 33.36516034358229 H 0.0 **** 0.06
35434 H 242.9923218746755 210.6841744366487 34.53453291855854 H 0.0 **** 0.06
35435 H 242.61341199430237 212.09991080341845 33.523646818263245 H 0.0 **** 0.06
35436 C 18.32087451662298 108.3632766144411 193.6010404271359 C 0.0 **** -0.24
35437 H 19.14753228112383 107.88952006044985 194.1291220715134 H 0.0 **** 0.06
35438 H 18.592622537528285 109.3881180228793 193.34519147878203 H 0.0 **** 0.06
35439 H 17.438019273374863 108.37014883287691 194.23989248854414 H 0.0 **** 0.06
35440 H 18.104410321387917 107.80624780479502 192.68940468432015 H 0.0 **** 0.06
35441 C 76.2042460175523 245.64470808470642 116.31150158605857 C 0.0 **** -0.24
35442 H 76.73840321311076 246.23245909634994 117.05744354027121 H 0.0 **** 0.06
35443 H 75.18568400168459 246.02127713337433 116.2140349405091 H 0.0 **** 0.06
35444 H 76.17732339961702 244.60090811269114 116.62368479542982 H 0.0 **** 0.06
35445 H 76.71477697199762 245.7236757718387 115.35189342940046 H 0.0 **** 0.06
35446 C 182.0224602450526 78.48953532878932 69.27691350280296 C 0.0 **** -0.24
35447 H 181.81977165801345 77.43815938449194 69.07132523537797 H 0.0 **** 0.06
35448 H 181.20624076943554 79.09956824089628 68.89203408390992 H 0.0 **** 0.06
35449 H 182.95417745543406 78.78143732745016 68.79254088762113 H 0.0 **** 0.06
35450 H 182.1119333306499 78.63772904367875 70.3535526107531 H 0.0 **** 0.06
35451 C 183.4724636974542 117.72080430804934 89.21684113019083 C 0.0 **** -0.24
35452 H 182.443296093803 117.94231235137295 89.49956679262647 H 0.0 **** 0.06
35453 H 183.6639629802885 118.10673151975209 88.21484871725457 H 0.0 **** 0.06
35454 H 183.62775412562206 116.64207327387615 89.22688133357966 H 0.0 **** 0.06
35455 H 184.15330482647056 118.19283585570301 89.9243078305289 H 0.0 **** 0.06
35456 C 158.70858231662024 44.319373595684596 12.88493422294502 C 0.0 **** -0.24
35457 H 159.69993813309688 44.7281665168577 12.689804623616226 H 0.0 **** 0.06
35458 H 158.52109745637537 44.317746697940095 13.958931129132296 H 0.0 **** 0.06
35459 H 158.6554316618409 43.298075650412414 12.505695380716844 H 0.0 **** 0.06
35460 H 157.95871548245918 44.931641131809656 12.384413733560322 H 0.0 **** 0.06
35461 C 194.06501454460562 56.92719070787493 68.31829394508154 C 0.0 **** -0.24
35462 H 195.14396661426275 56.775263657444754 68.34969733322467 H 0.0 **** 0.06
35463 H 193.8477353200692 57.891358476474494 67.85978242777216 H 0.0 **** 0.06
35464 H 193.66645922358094 56.90831045067799 69.33336969369665 H 0.0 **** 0.06
35465 H 193.60365974902027 56.13238714442204 67.73251957454764 H 0.0 **** 0.06
35466 C 65.86935378193297 39.719799321243855 2.641625364255219 C 0.0 **** -0.24
35467 H 65.4743305669814 40.139278111331265 3.5664917147994117 H 0.0 **** 0.06
35468 H 65.23242704903728 38.898724273742076 2.3141476361502384 H 0.0 **** 0.06
35469 H 66.88045410459057 39.35023780187696 2.8147784686589716 H 0.0 **** 0.06
35470 H 65.89146404127067 40.49207687937107 1.8733545335311703 H 0.0 **** 0.06
35471 C 166.62596376137301 233.513257903178 118.4755158870216 C 0.0 **** -0.24
35472 H 167.35774169994428 234.2781890572893 118.73661731149699 H 0.0 **** 0.06
35473 H 167.009558139078 232.5327042352419 118.75843006530746 H 0.0 **** 0.06
35474 H 166.44359115652333 233.53675782551034 117.40080543176506 H 0.0 **** 0.06
35475 H 165.6939430063128 233.70637698064348 119.00599010494793 H 0.0 **** 0.06
35476 C 190.87090536116057 105.42495918397049 6.43303878277402 C 0.0 **** -0.24
35477 H 190.97644881753655 106.12061615581459 7.265698694320363 H 0.0 **** 0.06
35478 H 190.5351495031494 105.96624945394456 5.548184883957248 H 0.0 **** 0.06
35479 H 190.1395078257466 104.65967752230208 6.6905483572390665 H 0.0 **** 0.06
35480 H 191.83273672875285 104.95514677729491 6.228954765827609 H 0.0 **** 0.06
35481 C 97.4664979988992 99.36769195709076 33.08973075236362 C 0.0 **** -0.24
35482 H 98.06937386611233 99.73796773102546 33.91933434195816 H 0.0 **** 0.06
35483 H 96.46625148309471 99.12405638132907 33.447728213292166 H 0.0 **** 0.06
35484 H 97.93169246390451 98.47444304818418 32.67330061208625 H 0.0 **** 0.06
35485 H 97.40059198791931 100.13580302069317 32.318814825645006 H 0.0 **** 0.06
35486 C 40.857306054751604 1.7069117014892186 136.15090576870227 C 0.0 **** -0.24
35487 H 41.34190182733002 1.3920316640633104 137.07508003152793 H 0.0 **** 0.06
35488 H 39.96472501630848 1.103577388225375 135.98534198788568 H 0.0 **** 0.06
35489 H 41.546108194017364 1.5756304378736417 135.3161678365321 H 0.0 **** 0.06
35490 H 40.575593408515346 2.757658770351199 136.22893887123067 H 0.0 **** 0.06
35491 C 96.61890095452165 60.40746887657511 228.90908733163297 C 0.0 **** -0.24
35492 H 96.6529371289887 61.47948563239919 229.1078993047645 H 0.0 **** 0.06
35493 H 96.36143207095958 60.2400062808114 227.86369811559194 H 0.0 **** 0.06
35494 H 95.86587421107231 59.943921019980905 229.54782334513624 H 0.0 **** 0.06
35495 H 97.59428790159131 59.967926755676274 229.11970453087486 H 0.0 **** 0.06
35496 C 213.85592621426437 3.424868108556609 125.70454357059191 C 0.0 **** -0.24
35497 H 214.8264436732495 3.2598673920531382 126.17238563097933 H 0.0 **** 0.06
35498 H 213.9777196125332 3.4738160958009416 124.62175501925438 H 0.0 **** 0.06
35499 H 213.4327478908433 4.362536198114526 126.06560344782446 H 0.0 **** 0.06
35500 H 213.18618066217869 2.602664983797183 125.95729936114205 H 0.0 **** 0.06
35501 C 226.01882157927193 146.80177486230636 56.66005951666486 C 0.0 **** -0.24
35502 H 227.07864623858217 146.58529161608564 56.52744254728157 H 0.0 **** 0.06
35503 H 225.8733532976527 147.34065453461986 57.59670099243766 H 0.0 **** 0.06
35504 H 225.45889299090697 145.86728200009233 56.688070771251915 H 0.0 **** 0.06
35505 H 225.6657905203097 147.41257436297505 55.82956231382744 H 0.0 **** 0.06
35506 C 97.84718518874428 1.4924330788235523 115.27586455314264 C 0.0 **** -0.24
35507 H 97.08982781153003 2.048634228355837 115.82800280630897 H 0.0 **** 0.06
35508 H 97.7283451972682 1.678605005403739 114.20841589373563 H 0.0 **** 0.06
35509 H 97.73059085650857 0.42625794042280063 115.47339915032686 H 0.0 **** 0.06
35510 H 98.83816837667118 1.8149294585925588 115.5934837653335 H 0.0 **** 0.06
35511 C 133.25948411083652 230.36267999709713 81.59501491199273 C 0.0 **** -0.24
35512 H 133.43522067386795 230.435251181348 80.5216530651891 H 0.0 **** 0.06
35513 H 133.84163918213446 229.5361352829202 82.00271195561791 H 0.0 **** 0.06
35514 H 132.19965819160038 230.18607163567552 81.7778675145154 H 0.0 **** 0.06
35515 H 133.5612370222403 231.29280599734122 82.07616599971846 H 0.0 **** 0.06
35516 C 41.87218331534585 7.7631300541040105 62.13031859169067 C 0.0 **** -0.24
35517 H 42.127999640869234 8.800030815793576 62.348103775769715 H 0.0 **** 0.06
35518 H 41.59393213291841 7.255529829403201 63.054543062156455 H 0.0 **** 0.06
35519 H 42.7328732739842 7.262280841517068 61.68541473156262 H 0.0 **** 0.06
35520 H 41.03392821361169 7.734678729702097 61.43321279727391 H 0.0 **** 0.06
35521 C 240.3340956677041 243.108579842283 242.68245907964334 C 0.0 **** -0.24
35522 H 240.55550691845514 243.6509709020825 243.6019075937836 H 0.0 **** 0.06
35523 H 240.95034351051157 242.21113603950204 242.633768416909 H 0.0 **** 0.06
35524 H 240.54988924680146 243.74582491255657 241.8240923551457 H 0.0 **** 0.06
35525 H 239.2809318388313 242.82835440178889 242.6710916588845 H 0.0 **** 0.06
35526 C 190.5238938325487 222.46592539306545 11.870963435384866 C 0.0 **** -0.24
35527 H 191.22612368012958 221.8698807429506 11.288045271199934 H 0.0 **** 0.06
35528 H 190.46625746051018 223.47163480272715 11.453417975736173 H 0.0 **** 0.06
35529 H 190.86500418194814 222.5200938997134 12.904777282784124 H 0.0 **** 0.06
35530 H 189.53797553232727 222.0013095883856 11.836454914211188 H 0.0 **** 0.06
35531 C 204.14789465299893 225.28024362663496 196.84126860842034 C 0.0 **** -0.24
35532 H 204.1306333493079 226.26691263615072 196.37934667434462 H 0.0 **** 0.06
35533 H 203.30351243362207 224.6943111397278 196.476913881964 H 0.0 **** 0.06
35534 H 204.0780450326016 225.3849941934683 197.924089424976 H 0.0 **** 0.06
35535 H 205.07850534878963 224.77550805698837 196.58391419097327 H 0.0 **** 0.06
35536 C 191.92429519436018 139.33626795625798 174.02101657669957 C 0.0 **** -0.24
35537 H 192.29648591710497 138.45224340584517 173.50234207526773 H 0.0 **** 0.06
35538 H 192.49427768067935 139.48505781176274 174.93890661763288 H 0.0 **** 0.06
35539 H 190.87121380190814 139.19656198124093 174.2652222088644 H 0.0 **** 0.06
35540 H 192.03633697603348 140.208360953796 173.37681706431158 H 0.0 **** 0.06
35541 C 132.55882413076264 169.44424068992305 14.723998642593216 C 0.0 **** -0.24
35542 H 133.2678694778055 169.19898878686348 15.515025047930749 H 0.0 **** 0.06
35543 H 131.5728307297798 169.0600730234438 14.987628681962121 H 0.0 **** 0.06
35544 H 132.88697376777998 168.99185330054513 13.788998632055652 H 0.0 **** 0.06
35545 H 132.5072120529527 170.5267201483298 14.60551662657214 H 0.0 **** 0.06
35546 C 36.62856190498991 36.04454432027295 234.22568699398573 C 0.0 **** -0.24
35547 H 35.9680111608364 36.90734240273599 234.31843269195906 H 0.0 **** 0.06
35548 H 37.51785128603473 36.32831305412496 233.66137831243282 H 0.0 **** 0.06
35549 H 36.10700448626852 35.24275679502203 233.70487304140818 H 0.0 **** 0.06
35550 H 36.922420924622486 35.70397058313634 235.2185449774279 H 0.0 **** 0.06
35551 C 46.11350951769924 152.6492962932168 177.88757837205333 C 0.0 **** -0.24
35552 H 46.408888674740155 152.06877603887426 177.0143997286948 H 0.0 **** 0.06
35553 H 46.22291347526024 153.71278249097128 177.6720477171754 H 0.0 **** 0.06
35554 H 46.748463732219065 152.3825076559899 178.73254555461656 H 0.0 **** 0.06
35555 H 45.07317779040275 152.43321566822573 178.13260008259678 H 0.0 **** 0.06
35556 C 201.80052386445192 213.4465565041993 68.44492123398214 C 0.0 **** -0.24
35557 H 202.1900118595862 214.28934505186464 67.87547929957753 H 0.0 **** 0.06
35558 H 200.74598707414185 213.61452020371564 68.66735535567238 H 0.0 **** 0.06
35559 H 202.3582247140718 213.3493350654637 69.376207613171 H 0.0 **** 0.06
35560 H 201.90707839598002 212.532844640148 67.85948606363277 H 0.0 **** 0.06
35561 C 112.86917580784024 43.56622936244733 30.5746097099358 C 0.0 **** -0.24
35562 H 112.35522841046702 43.42988689180629 29.62274975228891 H 0.0 **** 0.06
35563 H 113.89187015660698 43.898380453187 30.391019108858615 H 0.0 **** 0.06
35564 H 112.88626585910967 42.62049745422806 31.11610731399776 H 0.0 **** 0.06
35565 H 112.34467920591865 44.31474912391866 31.167068175647927 H 0.0 **** 0.06
35566 C 184.1937684563578 131.55868658849613 121.4785874140189 C 0.0 **** -0.24
35567 H 183.31573804846863 130.9437710132274 121.67831226326214 H 0.0 **** 0.06
35568 H 184.6830342643458 131.808276279297 122.41989741657301 H 0.0 **** 0.06
35569 H 183.88830697059313 132.47443665252177 120.9722390439565 H 0.0 **** 0.06
35570 H 184.88567424893319 131.00590200781832 120.8441127190591 H 0.0 **** 0.06
35571 C 119.88414819772328 124.4482354492539 63.2687651157772 C 0.0 **** -0.24
35572 H 119.67491492986778 124.12183760128124 64.28691758092071 H 0.0 **** 0.06
35573 H 119.33101858235048 123.82397618228603 62.566747616752764 H 0.0 **** 0.06
35574 H 120.95197181167904 124.35950778565746 63.07110204040907 H 0.0 **** 0.06
35575 H 119.57624875234217 125.48762626080745 63.15052277429379 H 0.0 **** 0.06
35576 C 106.3904534310874 58.48250184893763 139.78226515087786 C 0.0 **** -0.24
35577 H 105.77803122183161 57.69575206200736 140.2247122052414 H 0.0 **** 0.06
35578 H 106.78849633034412 59.12052309438556 140.57107710956578 H 0.0 **** 0.06
35579 H 105.77938433538557 59.078938657917746 139.10480647160074 H 0.0 **** 0.06
35580 H 107.21408596462112 58.03206957398416 139.22793331097225 H 0.0 **** 0.06
35581 C 45.65795645607693 198.7314334462652 150.95844966342625 C 0.0 **** -0.24
35582 H 44.63202440508891 198.64085875709236 150.6013037221775 H 0.0 **** 0.06
35583 H 46.34184417797215 198.69984916167388 150.10901890897793 H 0.0 **** 0.06
35584 H 45.88185464394476 197.9077045521834 151.63575969053372 H 0.0 **** 0.06
35585 H 45.77636232975013 199.6785669438764 151.48499952632145 H 0.0 **** 0.06
35586 C 223.76057728050458 38.76817920314424 38.816174043301956 C 0.0 **** -0.24
35587 H 223.59229115619797 39.11760671763608 37.79788785858801 H 0.0 **** 0.06
35588 H 223.12013299021632 37.909372092491495 39.016291567526395 H 0.0 **** 0.06
35589 H 223.5263546365987 39.56818196050709 39.51815474521506 H 0.0 **** 0.06
35590 H 224.80566130323518 38.47785478210632 38.93175389460791 H 0.0 **** 0.06
35591 C 156.7545103525086 49.04832324012793 212.81618836378965 C 0.0 **** -0.24
35592 H 156.55169775424628 50.09907518296947 212.60859025283975 H 0.0 **** 0.06
35593 H 157.39115774593535 48.63868556376818 212.03156256379947 H 0.0 **** 0.06
35594 H 155.81451433621444 48.49797321818252 212.8468462351964 H 0.0 **** 0.06
35595 H 157.25961700531846 48.9593804555258 213.7785095311629 H 0.0 **** 0.06
35596 C 39.1668963676635 155.98965489109173 174.38334340482717 C 0.0 **** -0.24
35597 H 39.57224946796546 155.08798173796183 174.84126364622156 H 0.0 **** 0.06
35598 H 39.96804754805717 156.71372032966482 174.23640603042733 H 0.0 **** 0.06
35599 H 38.40419364212224 156.4174667917676 175.034501684669 H 0.0 **** 0.06
35600 H 38.72326753926765 155.73837995184317 173.41952187346547 H 0.0 **** 0.06
35601 C 48.26384310907534 229.03468199427294 148.0736936064898 C 0.0 **** -0.24
35602 H 48.371492487167075 229.6561564443237 148.9623092051001 H 0.0 **** 0.06
35603 H 49.24984003555262 228.73836473483453 147.71601678298012 H 0.0 **** 0.06
35604 H 47.74936352790151 229.5988897505656 147.29629092431082 H 0.0 **** 0.06
35605 H 47.684436972982596 228.145027733265 148.32152096447842 H 0.0 **** 0.06
35606 C 173.21083871987554 18.711230734022735 1.23495123850536 C 0.0 **** -0.24
35607 H 173.15208761526497 17.850516558118755 1.9010720857515508 H 0.0 **** 0.06
35608 H 172.29395291419152 18.781613307832146 0.6493598399560057 H 0.0 **** 0.06
35609 H 174.0621123234417 18.594552157170057 0.5647177532941754 H 0.0 **** 0.06
35610 H 173.33537643992872 19.61935173384174 1.8255129908572627 H 0.0 **** 0.06
35611 C 138.64018693529977 126.58825115174761 152.75099376359853 C 0.0 **** -0.24
35612 H 138.19062670628074 127.504046401111 153.13426028529457 H 0.0 **** 0.06
35613 H 138.43801145514755 126.50365561766785 151.6835832366605 H 0.0 **** 0.06
35614 H 138.21526416602165 125.72956175460331 153.27181785940834 H 0.0 **** 0.06
35615 H 139.71767993305596 126.61571960674229 152.91661653763197 H 0.0 **** 0.06
35616 C 248.18339638719723 73.81624968105265 246.9982001967885 C 0.0 **** -0.24
35617 H 247.55555474936318 73.12427677393461 247.55971328183267 H 0.0 **** 0.06
35618 H 247.71603055470862 74.80083066861371 246.98555007748297 H 0.0 **** 0.06
35619 H 248.29838452064868 73.4542521924295 245.9765891577925 H 0.0 **** 0.06
35620 H 249.1628835743204 73.8832065684903 247.4725441670416 H 0.0 **** 0.06
35621 C 7.8627981963628315 17.120600054556604 221.28727728966825 C 0.0 **** -0.24
35622 H 7.513666203006295 17.989063509829265 220.7287617153775 H 0.0 **** 0.06
35623 H 7.110383339227752 16.332940758356273 221.24288935381298 H 0.0 **** 0.06
35624 H 8.03474518078977 17.401990449091812 222.3260199170118 H 0.0 **** 0.06
35625 H 8.79447333337518 16.758699811291393 220.85017061957555 H 0.0 **** 0.06
35626 C 225.7030683277924 145.35614406519863 129.8155414475877 C 0.0 **** -0.24
35627 H 225.81076107447882 145.87995952922074 128.86575347084113 H 0.0 **** 0.06
35628 H 224.72169981872378 145.56938720680978 130.2386818216577 H 0.0 **** 0.06
35629 H 226.47826085234485 145.69089650070933 130.5042466951445 H 0.0 **** 0.06
35630 H 225.8031037024975 144.28302069714817 129.65067866704908 H 0.0 **** 0.06
35631 C 31.719185317665122 142.21643324404627 111.30073021020317 C 0.0 **** -0.24
35632 H 30.946604385478338 142.8174227241075 111.78003691183514 H 0.0 **** 0.06
35633 H 31.63872480399212 141.18355258036942 111.6403317630315 H 0.0 **** 0.06
35634 H 32.70130066291917 142.6095810557901 111.56234980143014 H 0.0 **** 0.06
35635 H 31.58971850531283 142.25458555630132 110.2180819125301 H 0.0 **** 0.06
35636 C 113.68670050049056 147.29983706251886 18.69171903984534 C 0.0 **** -0.24
35637 H 112.63996803266514 147.1295577384478 18.944031670571306 H 0.0 **** 0.06
35638 H 114.11694255870975 148.01689751214678 19.391557350651112 H 0.0 **** 0.06
35639 H 113.75645440729207 147.69406471075266 17.678435016276453 H 0.0 **** 0.06
35640 H 114.23273780678332 146.358157404962 18.753882198911015 H 0.0 **** 0.06
35641 C 175.15399487956566 26.908555399932112 156.1714143009558 C 0.0 **** -0.24
35642 H 175.41524135822985 27.007594630738808 157.2244489945368 H 0.0 **** 0.06
35643 H 176.06343474618402 26.913408177183896 155.56948975301282 H 0.0 **** 0.06
35644 H 174.51668786296423 27.741650535082286 155.87507862869518 H 0.0 **** 0.06
35645 H 174.6206129081581 25.97060796480183 156.01691882969115 H 0.0 **** 0.06
35646 C 97.85855089876944 89.03856688193807 105.46058330603063 C 0.0 **** -0.24
35647 H 97.27304596684445 88.46981762445395 104.73779161275746 H 0.0 **** 0.06
35648 H 98.76478578735751 88.48514447420618 105.70810611553543 H 0.0 **** 0.06
35649 H 97.26890674133176 89.19423567917838 106.36319038982197 H 0.0 **** 0.06
35650 H 98.12747692786479 90.00323477557342 105.03014142176954 H 0.0 **** 0.06
35651 C 141.57630955696771 2.6362065238900954 15.330870041870838 C 0.0 **** -0.24
35652 H 142.4962220454306 2.0536775649486287 15.392177518118473 H 0.0 **** 0.06
35653 H 140.74233397401937 2.0366902807034393 15.695737921897262 H 0.0 **** 0.06
35654 H 141.39551064891737 2.9203857134993143 14.29468207502353 H 0.0 **** 0.06
35655 H 141.67382823437407 3.5328469516642826 15.942989818136056 H 0.0 **** 0.06
35656 C 22.881094843933752 158.3349208118396 5.671504089506328 C 0.0 **** -0.24
35657 H 22.583014948157782 157.6904083491298 4.844679665522477 H 0.0 **** 0.06
35658 H 22.00191462744847 158.8372374565231 6.076261688896608 H 0.0 **** 0.06
35659 H 23.592662099771232 159.07900729203502 5.31360337799768 H 0.0 **** 0.06
35660 H 23.346482962092665 157.73226514704388 6.450904249799464 H 0.0 **** 0.06
35661 C 164.53794878136944 59.17864213699457 223.83663620488431 C 0.0 **** -0.24
35662 H 163.6485655174583 59.809124467289706 223.82519001065117 H 0.0 **** 0.06
35663 H 165.20228873498255 59.473168150593835 223.02391766363624 H 0.0 **** 0.06
35664 H 164.24539752554438 58.13716070165094 223.70737004276867 H 0.0 **** 0.06
35665 H 165.0543693800262 59.296087793659524 224.7884312644767 H 0.0 **** 0.06
35666 C 33.94607420829408 227.09758429272853 216.74984278144365 C 0.0 **** -0.24
35667 H 33.009493572359986 227.5056765453502 217.1295321185259 H 0.0 **** 0.06
35668 H 33.900221671207035 227.03741963435655 215.66235975623968 H 0.0 **** 0.06
35669 H 34.10245796715935 226.10088644022704 217.163435682508 H 0.0 **** 0.06
35670 H 34.77112986725443 227.74635928668286 217.04415509393374 H 0.0 **** 0.06
35671 C 183.63835971927855 186.82570997244102 61.88413259764948 C 0.0 **** -0.24
35672 H 182.9032972646167 186.48642111059246 62.61481162221125 H 0.0 **** 0.06
35673 H 183.85775185256847 186.0159178138486 61.18705990604619 H 0.0 **** 0.06
35674 H 184.55267027981978 187.12012271769203 62.397851283554274 H 0.0 **** 0.06
35675 H 183.23812073173872 187.6781257503048 61.33497172297595 H 0.0 **** 0.06
35676 C 60.78372233987304 119.26755993343065 48.159183009670684 C 0.0 **** -0.24
35677 H 60.607116005153784 119.95258107323517 47.330665177779636 H 0.0 **** 0.06
35678 H 61.11887389968197 118.30555391217118 47.770051377940845 H 0.0 **** 0.06
35679 H 59.85969100715536 119.13046107873001 48.72107318725416 H 0.0 **** 0.06
35680 H 61.55009091531298 119.68016762699631 48.81473595122405 H 0.0 **** 0.06
35681 C 35.18084235250609 78.52109761033444 59.15593188166028 C 0.0 **** -0.24
35682 H 35.198087884481595 78.30518782949883 58.08729764352171 H 0.0 **** 0.06
35683 H 35.51620843115647 77.64328364614218 59.70878431420732 H 0.0 **** 0.06
35684 H 34.164747194242594 78.77514646742137 59.45816917073611 H 0.0 **** 0.06
35685 H 35.84396067864276 79.36019752595249 59.366554736367846 H 0.0 **** 0.06
35686 C 212.77009086486984 83.29164372513284 137.81870175734178 C 0.0 **** -0.24
35687 H 213.10817848265782 84.31968251087136 137.9472069426852 H 0.0 **** 0.06
35688 H 211.70338458322908 83.2308701528311 138.03522162692408 H 0.0 **** 0.06
35689 H 213.31741207275053 82.64183691804874 138.50240358502094 H 0.0 **** 0.06
35690 H 212.95285846771827 82.97478037115039 136.79252137595952 H 0.0 **** 0.06
35691 C 4.122210979817822 107.56341725750056 100.36479906037934 C 0.0 **** -0.24
35692 H 3.5272450943975002 106.73615298687969 99.9789597386087 H 0.0 **** 0.06
35693 H 4.007948693222545 107.61958294087034 101.44693126410425 H 0.0 **** 0.06
35694 H 3.782897836804949 108.49624370769291 99.91348322591071 H 0.0 **** 0.06
35695 H 5.171421442541259 107.4016761290784 100.1174657183845 H 0.0 **** 0.06
35696 C 4.731476693394299 139.7238983513718 238.18594540814686 C 0.0 **** -0.24
35697 H 5.376960372774434 139.57996553662088 237.318741426224 H 0.0 **** 0.06
35698 H 4.718539653950884 138.81190873437828 238.7843576063305 H 0.0 **** 0.06
35699 H 3.7205111485057927 139.95422074977245 237.85156864869631 H 0.0 **** 0.06
35700 H 5.111814608663579 140.54841398726546 238.7887377462599 H 0.0 **** 0.06
35701 C 208.37231029737345 194.2137269558413 208.88838529541928 C 0.0 **** -0.24
35702 H 208.15429200870636 193.15006969931216 208.98233651585952 H 0.0 **** 0.06
35703 H 208.8457501450998 194.56921131238562 209.80329848627832 H 0.0 **** 0.06
35704 H 207.44381453571754 194.7616387108419 208.7229739485876 H 0.0 **** 0.06
35705 H 209.04295689177243 194.37367980514512 208.04482392288762 H 0.0 **** 0.06
35706 C 79.04862223986731 225.0857278973579 19.713816140354155 C 0.0 **** -0.24
35707 H 78.32079176866125 225.81214401790618 20.075932141601044 H 0.0 **** 0.06
35708 H 78.76944036217523 224.09027238847298 20.058117420314886 H 0.0 **** 0.06
35709 H 80.03678378958824 225.33995129204027 20.098119136588736 H 0.0 **** 0.06
35710 H 79.06749414438409 225.10246985665995 18.624231758847245 H 0.0 **** 0.06
35711 C 60.465575720947584 229.01483377259743 178.27459962339455 C 0.0 **** -0.24
35712 H 61.2631855860142 228.35411880897004 177.93519454494322 H 0.0 **** 0.06
35713 H 59.53201558557211 228.73899413902473 177.78196836097482 H 0.0 **** 0.06
35714 H 60.71707811748033 230.04563275303153 178.024542474469 H 0.0 **** 0.06
35715 H 60.34891189530882 228.92031033050262 179.35358082180437 H 0.0 **** 0.06
35716 C 153.23041776707032 40.19262209303518 77.15166097489933 C 0.0 **** -0.24
35717 H 154.04101065884993 40.90792741761837 77.01425274874859 H 0.0 **** 0.06
35718 H 152.95844994934714 40.15016701416209 78.20595250651431 H 0.0 **** 0.06
35719 H 153.55563917457872 39.206257304211746 76.8194394858277 H 0.0 **** 0.06
35720 H 152.36621597044862 40.50641607694368 76.56565912734001 H 0.0 **** 0.06
35721 C 184.65875380604822 117.11958837216199 151.45536117026384 C 0.0 **** -0.24
35722 H 184.77098341588118 118.15928149139381 151.763108311826 H 0.0 **** 0.06
35723 H 185.6429338018918 116.66123091633409 151.35837278136808 H 0.0 **** 0.06
35724 H 184.1418636038407 117.07929522429464 150.49709735477146 H 0.0 **** 0.06
35725 H 184.0791045577675 116.58078668052451 152.20384700166764 H 0.0 **** 0.06
35726 C 229.22989283636082 209.00532652942772 213.62219457668957 C 0.0 **** -0.24
35727 H 228.72812351233148 208.8870369380479 214.58285512665435 H 0.0 **** 0.06
35728 H 230.08510470934488 209.6721739185853 213.7396245476193 H 0.0 **** 0.06
35729 H 228.53428682454168 209.42991646014394 212.89899735122685 H 0.0 **** 0.06
35730 H 229.5723478510668 208.03299076806593 213.26959382685712 H 0.0 **** 0.06
35731 C 136.53843031320883 10.295036708504512 18.187122668915805 C 0.0 **** -0.24
35732 H 135.6671770423579 10.331324245194224 18.84004648391418 H 0.0 **** 0.06
35733 H 136.27277089420096 9.800281710937028 17.253402622195424 H 0.0 **** 0.06
35734 H 137.33724236187683 9.739702358998628 18.67869223729474 H 0.0 **** 0.06
35735 H 136.87760926004134 11.310081852779149 17.977863078098153 H 0.0 **** 0.06
35736 C 118.69516460467611 11.00566472550203 71.46833028437766 C 0.0 **** -0.24
35737 H 118.95688387052445 10.970455204573057 70.41120404958042 H 0.0 **** 0.06
35738 H 119.1373469384393 11.892766544617416 71.92229693485254 H 0.0 **** 0.06
35739 H 119.07542359797293 10.113751701935456 71.966710489865 H 0.0 **** 0.06
35740 H 117.61001315750985 11.045734223810427 71.5729838110017 H 0.0 **** 0.06
35741 C 70.97827975860864 172.83535023767593 216.50928037555767 C 0.0 **** -0.24
35742 H 71.26895839110716 171.7866764462457 216.57323960294065 H 0.0 **** 0.06
35743 H 70.67870478535619 173.19014855362886 217.4958758185668 H 0.0 **** 0.06
35744 H 70.14293062644435 172.93900274282385 215.8170105209673 H 0.0 **** 0.06
35745 H 71.82164910929359 173.4255303388781 216.1514757491016 H 0.0 **** 0.06
35746 C 241.0638022357461 107.45216564301123 102.84834685828284 C 0.0 **** -0.24
35747 H 242.03295473351073 107.71644696342776 103.27094759753504 H 0.0 **** 0.06
35748 H 240.31507666066202 108.17319099585166 103.17859681930409 H 0.0 **** 0.06
35749 H 240.7808915832431 106.45465224722844 103.18522244571639 H 0.0 **** 0.06
35750 H 241.1257967136964 107.46457305019305 101.76054940370102 H 0.0 **** 0.06
35751 C 34.13299708875367 126.94843655519011 56.31720431609432 C 0.0 **** -0.24
35752 H 33.816887020278415 127.98103780399077 56.46561811517495 H 0.0 **** 0.06
35753 H 34.13541406371509 126.71941875928354 55.251011281344006 H 0.0 **** 0.06
35754 H 33.442663618986174 126.27982109060738 56.83190678763731 H 0.0 **** 0.06
35755 H 35.13712752936409 126.81518648558463 56.72047600080171 H 0.0 **** 0.06
35756 C 188.99876392886705 240.53037645954595 245.9356299749643 C 0.0 **** -0.24
35757 H 188.17450819295223 240.5537768390579 246.64891987338555 H 0.0 **** 0.06
35758 H 189.06370482328657 239.5392629445042 245.48737531153392 H 0.0 **** 0.06
35759 H 189.93171720008783 240.75809164847678 246.45220481491396 H 0.0 **** 0.06
35760 H 188.8250807605188 241.27252154480271 245.15586051729517 H 0.0 **** 0.06
35761 C 15.51062142417058 76.6469499452399 14.171167280262267 C 0.0 **** -0.24
35762 H 14.991226661403331 76.86571539190282 15.103257035828477 H 0.0 **** 0.06
35763 H 14.893291167246389 75.99096629778683 13.556381635032693 H 0.0 **** 0.06
35764 H 16.45830292161044 76.1557772655784 14.389512732998838 H 0.0 **** 0.06
35765 H 15.697973595542862 77.57718596203088 13.633122947692385 H 0.0 **** 0.06
35766 C 151.71684696829922 231.4967571646546 50.05474489675137 C 0.0 **** -0.24
35767 H 152.4888672229363 230.74010286455274 50.19004660923346 H 0.0 **** 0.06
35768 H 152.12025670456987 232.32666028561806 49.47227945633679 H 0.0 **** 0.06
35769 H 151.39043627829005 231.860814804312 51.02821069071743 H 0.0 **** 0.06
35770 H 150.86909101633918 231.06012838460688 49.52580753447708 H 0.0 **** 0.06
35771 C 107.20794834738285 149.55931988597618 139.97627187002192 C 0.0 **** -0.24
35772 H 106.87352284144421 149.006425577363 139.0981972502611 H 0.0 **** 0.06
35773 H 107.9117478803729 148.9503644290337 140.54302934089284 H 0.0 **** 0.06
35774 H 106.34888419800794 149.8003189794042 140.6021159319665 H 0.0 **** 0.06
35775 H 107.69653708373866 150.48161400377077 139.6601007331437 H 0.0 **** 0.06
35776 C 6.138123561743839 207.06611127479806 6.506706908353209 C 0.0 **** -0.24
35777 H 5.706785318747322 206.69776494826345 7.438166453928801 H 0.0 **** 0.06
35778 H 5.969765226692488 208.14029214839928 6.428269077022321 H 0.0 **** 0.06
35779 H 5.665714685864799 206.56109345821437 5.663840113902751 H 0.0 **** 0.06
35780 H 7.209170378957182 206.86515819845016 6.497479737225859 H 0.0 **** 0.06
35781 C 99.68868601684454 66.5849065808575 175.82343299256428 C 0.0 **** -0.24
35782 H 100.47188632080935 66.20788404194803 175.16614397473046 H 0.0 **** 0.06
35783 H 98.98992356125578 65.77922373565809 176.0537692153099 H 0.0 **** 0.06
35784 H 99.15661311738253 67.39667352713033 175.32725517647492 H 0.0 **** 0.06
35785 H 100.1355825243698 66.95427831829605 176.7465579040643 H 0.0 **** 0.06
35786 C 7.9850172169974485 51.822574437021885 128.6946891881433 C 0.0 **** -0.24
35787 H 8.007161168120675 50.756920171347915 128.46764911196718 H 0.0 **** 0.06
35788 H 7.214794392212099 52.01874625454185 129.44081182577685 H 0.0 **** 0.06
35789 H 7.761810927549462 52.383019169365454 127.78597678109185 H 0.0 **** 0.06
35790 H 8.954773057544017 52.131908088796905 129.0827147759373 H 0.0 **** 0.06
35791 C 94.18354888098364 214.87914751136537 155.25170513940728 C 0.0 **** -0.24
35792 H 94.03927579479765 215.85948904271402 154.79874452589522 H 0.0 **** 0.06
35793 H 95.24966514827295 214.69043672407642 155.3786299778237 H 0.0 **** 0.06
35794 H 93.75304497090193 214.11362765056927 154.60545263156686 H 0.0 **** 0.06
35795 H 93.68999473546305 214.85281046059384 156.22378550914212 H 0.0 **** 0.06
35796 C 8.630852202238458 72.69339710032341 242.17977085846167 C 0.0 **** -0.24
35797 H 8.840977207855786 71.70577209565204 241.7710742882863 H 0.0 **** 0.06
35798 H 9.151027533933245 72.81138942294683 243.13072459661822 H 0.0 **** 0.06
35799 H 7.557212556231249 72.80104445839407 242.33702712957577 H 0.0 **** 0.06
35800 H 8.974019388848404 73.45636092652762 241.48037107286257 H 0.0 **** 0.06
35801 C 238.96460435824508 50.402514226940696 226.71028937302066 C 0.0 **** -0.24
35802 H 239.60741887824395 51.255106800111534 226.49365152794064 H 0.0 **** 0.06
35803 H 239.57442546419315 49.50484684244549 226.81332847523058 H 0.0 **** 0.06
35804 H 238.25348394178297 50.26835827195703 225.89520992810617 H 0.0 **** 0.06
35805 H 238.42329485832744 50.58343447081562 227.63928908582403 H 0.0 **** 0.06
35806 C 6.382838792770002 67.25012672458075 122.21966563346615 C 0.0 **** -0.24
35807 H 6.617992264658682 67.29189860348626 121.15581436056812 H 0.0 **** 0.06
35808 H 6.224084205461992 66.21268527430766 122.51590843669942 H 0.0 **** 0.06
35809 H 5.478322345153288 67.82542860017864 122.41395229016746 H 0.0 **** 0.06
35810 H 7.21142552951747 67.66923452189369 122.79093986484821 H 0.0 **** 0.06
35811 C 119.9649948902211 166.4096243257296 56.19721301426995 C 0.0 **** -0.24
35812 H 120.97932472483521 166.09138345460659 55.95225113246917 H 0.0 **** 0.06
35813 H 119.42995544457281 166.65266312347777 55.27899871093365 H 0.0 **** 0.06
35814 H 120.00602813036116 167.2898764158983 56.838843048729785 H 0.0 **** 0.06
35815 H 119.44774757345985 165.60441212457917 56.71753030136415 H 0.0 **** 0.06
35816 C 15.87335995489218 87.19714931974619 243.80667908455078 C 0.0 **** -0.24
35817 H 16.711033136553596 87.19076055321594 244.504296025573 H 0.0 **** 0.06
35818 H 15.360695915865008 88.1576414763708 243.865839685234 H 0.0 **** 0.06
35819 H 15.17882196140792 86.39839848227601 244.06694365091641 H 0.0 **** 0.06
35820 H 16.242950694473848 87.04293400151178 242.79359968177596 H 0.0 **** 0.06
35821 C 239.98792573334202 121.53381858540519 183.16694544104132 C 0.0 **** -0.24
35822 H 239.62596371629422 121.81143457219886 184.15690828441052 H 0.0 **** 0.06
35823 H 240.92189501964646 120.97865686335402 183.2634877655459 H 0.0 **** 0.06
35824 H 240.16019868111783 122.43448246250406 182.57775940917995 H 0.0 **** 0.06
35825 H 239.24458354326993 120.9108881503245 182.66991764903702 H 0.0 **** 0.06
35826 C 85.83858202891696 69.28557300946287 181.35550352418394 C 0.0 **** -0.24
35827 H 85.11153304209108 69.75409558815997 180.6917325253206 H 0.0 **** 0.06
35828 H 85.65763463586518 69.61229908991209 182.37985682508403 H 0.0 **** 0.06
35829 H 86.84466398793649 69.57366884390635 181.05378108087658 H 0.0 **** 0.06
35830 H 85.7375194413026 68.20208084175499 181.29630351762327 H 0.0 **** 0.06
35831 C 154.25187783814488 54.788960843759014 200.80352158790436 C 0.0 **** -0.24
35832 H 154.42049324255456 55.6873705277022 201.39537582032568 H 0.0 **** 0.06
35833 H 154.9401680384574 54.77692821591842 199.957083517567 H 0.0 **** 0.06
35834 H 153.22536699411015 54.78197658713265 200.43807081318081 H 0.0 **** 0.06
35835 H 154.42268045261002 53.9077224389722 201.42315609747044 H 0.0 **** 0.06
35836 C 223.88174814489213 76.96594514301009 152.15439203687586 C 0.0 **** -0.24
35837 H 222.95897652561953 76.45177063755145 151.88423894493636 H 0.0 **** 0.06
35838 H 224.10708974261158 77.72502313356514 151.40518155942974 H 0.0 **** 0.06
35839 H 224.69776470251415 76.24563249125887 152.20117043966178 H 0.0 **** 0.06
35840 H 223.76043730041 77.44067599256968 153.1280346140983 H 0.0 **** 0.06
35841 C 36.663036484530295 155.1877444188369 243.33692234623135 C 0.0 **** -0.24
35842 H 35.68057212253585 155.18589805876687 243.8084792702389 H 0.0 **** 0.06
35843 H 36.68795903890978 155.94327250542383 242.5511585438237 H 0.0 **** 0.06
35844 H 36.86041572288828 154.20661009347398 242.90479569466112 H 0.0 **** 0.06
35845 H 37.423594151329496 155.41393625341104 244.0837602479469 H 0.0 **** 0.06
35846 C 236.85734971126206 125.25625606519506 24.616426522971977 C 0.0 **** -0.24
35847 H 236.06134269589967 126.00140174487782 24.606410284155714 H 0.0 **** 0.06
35848 H 236.46840551420473 124.31479528626906 25.00307180331427 H 0.0 **** 0.06
35849 H 237.6715567140465 125.60297844808204 25.2531981617781 H 0.0 **** 0.06
35850 H 237.2276070623798 125.10804398268752 23.60205418468567 H 0.0 **** 0.06
35851 C 103.491611800145 68.70248569842644 49.446386526476914 C 0.0 **** -0.24
35852 H 102.5099535910609 68.50302337906928 49.017318341631324 H 0.0 **** 0.06
35853 H 104.26381647447622 68.45333420587016 48.71765882933224 H 0.0 **** 0.06
35854 H 103.62688166661766 68.09656588013647 50.342638618214295 H 0.0 **** 0.06
35855 H 103.56592849298042 69.75905989173114 49.70658181195708 H 0.0 **** 0.06
35856 C 180.30797709392198 93.41423339903693 181.63965295924737 C 0.0 **** -0.24
35857 H 180.34642655942585 93.23537163025551 182.71437370397223 H 0.0 **** 0.06
35858 H 181.20448387225372 93.9518969917564 181.32859019905462 H 0.0 **** 0.06
35859 H 179.42685198240164 94.00907500279806 181.40111876099525 H 0.0 **** 0.06
35860 H 180.25633531777612 92.46013525955797 181.11452683883513 H 0.0 **** 0.06
35861 C 24.23562009342932 162.86375243545595 7.03932989250049 C 0.0 **** -0.24
35862 H 25.048749877659148 162.89358442677428 6.313929605051868 H 0.0 **** 0.06
35863 H 24.627693999776554 162.5671166759815 8.012262495130955 H 0.0 **** 0.06
35864 H 23.485320815228405 162.14237418916863 6.71472706778863 H 0.0 **** 0.06
35865 H 23.780657140781358 163.8512267100635 7.115696351536116 H 0.0 **** 0.06
35866 C 223.14362312111678 138.79860570800523 30.97693324916885 C 0.0 **** -0.24
35867 H 223.56549911073435 137.79977027796937 30.860967685956325 H 0.0 **** 0.06
35868 H 223.94688442042295 139.5352290576424 30.967611598277117 H 0.0 **** 0.06
35869 H 222.60680115189345 138.85689974299672 31.924329975976477 H 0.0 **** 0.06
35870 H 222.45530503703256 138.99961838567495 30.156072306865582 H 0.0 **** 0.06
35871 C 216.11633570015 56.46159110754385 116.51130047728 C 0.0 **** -0.24
35872 H 215.83423107326058 57.186812724355605 117.27494840711853 H 0.0 **** 0.06
35873 H 217.19905680346176 56.477176050943996 116.37800114344716 H 0.0 **** 0.06
35874 H 215.63029057698844 56.71836466541029 115.5691003579212 H 0.0 **** 0.06
35875 H 215.8023002982365 55.46580046347452 116.82192294098792 H 0.0 **** 0.06
35876 C 0.5786354757828178 32.969995330609464 141.70130755548308 C 0.0 **** -0.24
35877 H 0.2920495953375024 33.97084190028606 141.37875020574347 H 0.0 **** 0.06
35878 H 1.3151301904671584 33.0432173820674 142.50201139796394 H 0.0 **** 0.06
35879 H 1.0078491422446234 32.42683664222868 140.86014477448614 H 0.0 **** 0.06
35880 H -0.30260008713079856 32.44028355048886 142.0646392114236 H 0.0 **** 0.06
35881 C 166.62009015556157 70.2560107895736 183.194587327477 C 0.0 **** -0.24
35882 H 165.7054753768354 70.7821206606535 183.46636806653822 H 0.0 **** 0.06
35883 H 166.43704097868687 69.64171357749831 182.31266130530787 H 0.0 **** 0.06
35884 H 166.93272802235919 69.61922542259737 184.02253571709824 H 0.0 **** 0.06
35885 H 167.4041688902364 70.97993510834107 182.9767257426989 H 0.0 **** 0.06
35886 C 195.58921111391987 72.31423013424748 195.7279542304852 C 0.0 **** -0.24
35887 H 196.6579976060786 72.26847168696463 195.51814915239544 H 0.0 **** 0.06
35888 H 195.0313982691403 72.03490043141178 194.83361798204393 H 0.0 **** 0.06
35889 H 195.3203279693937 73.3294426212108 196.022511602983 H 0.0 **** 0.06
35890 H 195.34801384222067 71.6251543424298 196.53648807945495 H 0.0 **** 0.06
35891 C 159.67791205778687 98.41715840570197 174.52972261079586 C 0.0 **** -0.24
35892 H 159.2454321354084 98.5162020769105 173.5346954626512 H 0.0 **** 0.06
35893 H 159.29336316827658 99.20835645044085 175.17319317960016 H 0.0 **** 0.06
35894 H 160.76307166536645 98.49835684107845 174.46365436288923 H 0.0 **** 0.06
35895 H 159.4105717532067 97.44689091937792 174.9473477151339 H 0.0 **** 0.06
35896 C 228.92438515417956 29.039301072106483 187.40678595964118 C 0.0 **** -0.24
35897 H 227.8481713876845 28.944963633264393 187.25754133421137 H 0.0 **** 0.06
35898 H 229.39509007481925 28.064191989867624 187.27692551227787 H 0.0 **** 0.06
35899 H 229.12091340080332 29.40761185488661 188.4138169360245 H 0.0 **** 0.06
35900 H 229.33137730430104 29.739071497667013 186.67707621780278 H 0.0 **** 0.06
35901 C 65.68594490096538 174.33595334985012 163.81317251846247 C 0.0 **** -0.24
35902 H 65.06917238878006 173.80332992909587 163.08942910608243 H 0.0 **** 0.06
35903 H 66.61629694712906 174.64693014307863 163.33800931204587 H 0.0 **** 0.06
35904 H 65.90791633689477 173.67899031674864 164.65433232903925 H 0.0 **** 0.06
35905 H 65.14789958727198 175.21483766612033 164.16927527650202 H 0.0 **** 0.06
35906 C 76.82860078531021 197.66769149081142 197.82191207449728 C 0.0 **** -0.24
35907 H 77.2518509855804 196.72123774836416 198.15854711687572 H 0.0 **** 0.06
35908 H 76.95708072168799 198.42045952822812 198.6002627445372 H 0.0 **** 0.06
35909 H 75.76623335883787 197.53790129011628 197.6143102234322 H 0.0 **** 0.06
35910 H 77.33891908630028 197.991639339752 196.91535011670476 H 0.0 **** 0.06
35911 C 188.88653576819814 30.27467764708328 225.3794777918495 C 0.0 **** -0.24
35912 H 189.90484502314206 30.60372452301597 225.1697947109826 H 0.0 **** 0.06
35913 H 188.87813870993318 29.196380491837118 225.5348396020252 H 0.0 **** 0.06
35914 H 188.24319547110267 30.52630684725716 224.53598233690465 H 0.0 **** 0.06
35915 H 188.52155227112746 30.77471416883897 226.27601283429507 H 0.0 **** 0.06
35916 C 122.42285231787753 227.53699517302198 128.89722211139122 C 0.0 **** -0.24
35917 H 121.8924584676038 226.59589439085468 129.03642065134756 H 0.0 **** 0.06
35918 H 123.24107503118759 227.39241345292217 128.19149249600025 H 0.0 **** 0.06
35919 H 122.82224296706138 227.87396898359265 129.85348793405964 H 0.0 **** 0.06
35920 H 121.73494017477395 228.28782658289373 128.50736745296075 H 0.0 **** 0.06
35921 C 71.01495907411515 95.58179408000746 35.123288175126646 C 0.0 **** -0.24
35922 H 71.27315803687753 94.52436547084159 35.181051500383234 H 0.0 **** 0.06
35923 H 71.86760569585564 96.14389734219304 34.74321551957652 H 0.0 **** 0.06
35924 H 70.75294289916255 95.94595486410515 36.11719713793693 H 0.0 **** 0.06
35925 H 70.16523876906967 95.71267903337332 34.45372033305719 H 0.0 **** 0.06
35926 C 80.49537874467532 152.4386242430416 24.90861821548387 C 0.0 **** -0.24
35927 H 80.42739137490466 151.71066842550982 24.1009297838211 H 0.0 **** 0.06
35928 H 80.89537793265862 153.375670610104 24.51990966806497 H 0.0 **** 0.06
35929 H 81.15614092984725 152.05660978081713 25.687247691677356 H 0.0 **** 0.06
35930 H 79.5042495961531 152.6116540021214 25.32585347948131 H 0.0 **** 0.06
35931 C 160.06453794830298 156.9056564114602 208.6945566731483 C 0.0 **** -0.24
35932 H 160.04400399670507 155.9390278258218 209.19781416479987 H 0.0 **** 0.06
35933 H 160.57354728834844 157.6337951550427 209.32571436054238 H 0.0 **** 0.06
35934 H 159.0431017464352 157.23845611655298 208.50622710827187 H 0.0 **** 0.06
35935 H 160.59495323715157 156.81102004668944 207.74691742166266 H 0.0 **** 0.06
35936 C 125.30754396589043 26.406664722805104 197.67622557230237 C 0.0 **** -0.24
35937 H 125.25495074288474 27.446157034233323 198.00021825458361 H 0.0 **** 0.06
35938 H 124.8196639944575 25.770625346907096 198.4145416365697 H 0.0 **** 0.06
35939 H 126.3515192733214 26.11123538087317 197.5737871707604 H 0.0 **** 0.06
35940 H 124.80391895563136 26.300507169916003 196.71512932476247 H 0.0 **** 0.06
35941 C 112.12587883312543 242.50052706586354 178.88751994563583 C 0.0 **** -0.24
35942 H 111.9541205997603 241.76656373557546 178.10150564051554 H 0.0 **** 0.06
35943 H 111.19293218285858 242.68804980800917 179.4193567071788 H 0.0 **** 0.06
35944 H 112.48492074564427 243.42937281443574 178.4447795641508 H 0.0 **** 0.06
35945 H 112.87122394992184 242.1173357423678 179.58496789523036 H 0.0 **** 0.06
35946 C 65.44272704711275 55.79349804148947 103.95270333598089 C 0.0 **** -0.24
35947 H 66.41601754468337 55.83755914355277 104.44151495241292 H 0.0 **** 0.06
35948 H 65.32033925334486 54.8205597719917 103.47682423346507 H 0.0 **** 0.06
35949 H 65.38080017222316 56.57816263351663 103.19871718987585 H 0.0 **** 0.06
35950 H 64.65810083116892 55.937724331358595 104.69404133403177 H 0.0 **** 0.06
35951 C 222.23886466794352 108.8311818256218 146.2267770098195 C 0.0 **** -0.24
35952 H 222.1498041976932 108.10661701701807 145.41759554938488 H 0.0 **** 0.06
35953 H 221.76116370298166 108.43393036605653 147.12356664836403 H 0.0 **** 0.06
35954 H 221.75099271047637 109.76167426783732 145.93685920240313 H 0.0 **** 0.06
35955 H 223.29251982674074 109.02052800331646 146.43085639722696 H 0.0 **** 0.06
35956 C 2.751322951402045 159.69304585216676 143.63918987070775 C 0.0 **** -0.24
35957 H 3.2574774744241495 160.59369881981723 143.98481161087489 H 0.0 **** 0.06
35958 H 3.3175509834077275 158.81525141800478 143.95248737750643 H 0.0 **** 0.06
35959 H 2.680564522392629 159.7102716060777 142.5511576574607 H 0.0 **** 0.06
35960 H 1.7500576676516602 159.65218045809453 144.06717983918531 H 0.0 **** 0.06
35961 C 19.48916412126431 184.55197956906233 181.34311054682945 C 0.0 **** -0.24
35962 H 19.232638464236715 183.80681058611395 182.09633717036655 H 0.0 **** 0.06
35963 H 20.45089074919254 184.2994684067787 180.89588288572764 H 0.0 **** 0.06
35964 H 19.550481237307054 185.53366808244783 181.8103197292911 H 0.0 **** 0.06
35965 H 18.721284287178563 184.56463787598798 180.56888518709928 H 0.0 **** 0.06
35966 C 76.03063228444213 82.25892018119674 113.77172080846066 C 0.0 **** -0.24
35967 H 75.27696776078861 82.65626492600751 113.09138815830164 H 0.0 **** 0.06
35968 H 76.73891098811927 81.64914998236449 113.21080891558637 H 0.0 **** 0.06
35969 H 75.54634709069862 81.6475765613011 114.53226823300707 H 0.0 **** 0.06
35970 H 76.55980750974723 83.08364353424804 114.24944410069895 H 0.0 **** 0.06
35971 C 248.50420856474457 92.7384220251746 3.454195494528591 C 0.0 **** -0.24
35972 H 249.14297003625654 91.99600107955098 3.9321405609610878 H 0.0 **** 0.06
35973 H 248.5670461730444 93.67908124308343 4.001427841206862 H 0.0 **** 0.06
35974 H 247.4729175487095 92.38541942680428 3.45495412781068 H 0.0 **** 0.06
35975 H 248.83380070794564 92.89259412132532 2.426979087041275 H 0.0 **** 0.06
35976 C 102.46148063895603 241.5666819299933 131.5169455262064 C 0.0 **** -0.24
35977 H 103.48817159813976 241.67451129691239 131.8657951561955 H 0.0 **** 0.06
35978 H 102.0063294165468 242.5523338787434 131.4150034883344 H 0.0 **** 0.06
35979 H 101.89343044239371 240.97637333227743 132.23679364534027 H 0.0 **** 0.06
35980 H 102.45803806104561 241.06251380398652 130.5502732840346 H 0.0 **** 0.06
35981 C 193.50957792250261 56.918019244598156 133.25997643415766 C 0.0 **** -0.24
35982 H 192.46579301392558 56.60971724352862 133.21318437908292 H 0.0 **** 0.06
35983 H 193.58253700116705 57.877596070346385 133.7724526420084 H 0.0 **** 0.06
35984 H 193.90515888123974 57.01475727418875 132.24916140519647 H 0.0 **** 0.06
35985 H 194.0848227936781 56.17000639032892 133.80510731034286 H 0.0 **** 0.06
35986 C 187.75717161345227 124.85937047142315 96.7519644854581 C 0.0 **** -0.24
35987 H 188.2334134588883 123.93545974162157 96.42661049478431 H 0.0 **** 0.06
35988 H 188.1981407298438 125.18238037001564 97.69543065909127 H 0.0 **** 0.06
35989 H 186.68946768508084 124.68958804497535 96.88910242116168 H 0.0 **** 0.06
35990 H 187.90848995088035 125.63101159653519 95.99734782738327 H 0.0 **** 0.06
35991 C 112.65820209106224 36.48939909220974 239.2777265328185 C 0.0 **** -0.24
35992 H 112.14964250547152 36.29373456972567 240.22073400515532 H 0.0 **** 0.06
35993 H 112.41929696347839 37.49707122008047 238.93770625153667 H 0.0 **** 0.06
35994 H 112.33029040530468 35.766819733462484 238.53066391009366 H 0.0 **** 0.06
35995 H 113.73529085429479 36.39991302713875 239.4215480063327 H 0.0 **** 0.06
35996 C 134.9955889482664 239.94260121272976 211.10231773119943 C 0.0 **** -0.24
35997 H 134.21823569705472 240.66620975473947 210.85673033174845 H 0.0 **** 0.06
35998 H 135.21332415954905 239.33220525352513 210.22524890214495 H 0.0 **** 0.06
35999 H 134.65235611630908 239.3036205112274 211.915108258886 H 0.0 **** 0.06
36000 H 135.89725169536854 240.47103055862408 211.41147187250516 H 0.0 **** 0.06
36001 C 34.32025811549019 109.54744350629886 154.63507544218922 C 0.0 **** -0.24
36002 H 34.923844683658075 110.19104448425577 155.27668718259164 H 0.0 **** 0.06
36003 H 33.51468425990319 109.10442160776748 155.22038897083613 H 0.0 **** 0.06
36004 H 34.94655786454945 108.75826275651957 154.22135099369407 H 0.0 **** 0.06
36005 H 33.89763636278397 110.13994033863537 153.8235978224116 H 0.0 **** 0.06
36006 C 234.03908307834945 91.94975115995166 161.54681545842547 C 0.0 **** -0.24
36007 H 233.9104141142289 90.97551860854674 161.0759356480811 H 0.0 **** 0.06
36008 H 235.08399012968886 92.2516084265977 161.47658005755244 H 0.0 **** 0.06
36009 H 233.74887178784854 91.88654399849244 162.5960227019765 H 0.0 **** 0.06
36010 H 233.41310335397742 92.68363786357463 161.0401802342237 H 0.0 **** 0.06
36011 C 4.669728224316543 216.64211638097916 120.08163743242068 C 0.0 **** -0.24
36012 H 4.0822407695935965 216.0926316102577 120.81803580189401 H 0.0 **** 0.06
36013 H 5.696983932367715 216.73346810103126 120.43318136084986 H 0.0 **** 0.06
36014 H 4.2420003744166195 217.63448344438652 119.94377861422663 H 0.0 **** 0.06
36015 H 4.6567206390888884 216.1046527462648 119.13317698616254 H 0.0 **** 0.06
36016 C 162.73928187529688 39.16763334857748 7.106556091931424 C 0.0 **** -0.24
36017 H 161.83932522603408 38.887745666977224 7.653311499226717 H 0.0 **** 0.06
36018 H 163.02325699927786 40.18591790475671 7.373698878711423 H 0.0 **** 0.06
36019 H 162.5449230471611 39.11335873648319 6.035444295489043 H 0.0 **** 0.06
36020 H 163.54831614120135 38.484489148751834 7.364926226958076 H 0.0 **** 0.06
36021 C 100.43899608162423 179.54269433831763 27.857391434527443 C 0.0 **** -0.24
36022 H 99.50062377268353 179.73944500498038 27.33958631003007 H 0.0 **** 0.06
36023 H 100.83401556133506 180.475070953535 28.261694580889426 H 0.0 **** 0.06
36024 H 101.15717895044554 179.11550687412588 27.15750943983069 H 0.0 **** 0.06
36025 H 100.26350911467054 178.83889586775626 28.671112890527326 H 0.0 **** 0.06
36026 C 219.04026856321948 163.3446560848253 186.29229673809937 C 0.0 **** -0.24
36027 H 218.55600554507288 162.38079314996253 186.44709058576154 H 0.0 **** 0.06
36028 H 218.9688327753262 163.9375762054271 187.20423326529257 H 0.0 **** 0.06
36029 H 218.54752478996608 163.87204915587827 185.47576034124864 H 0.0 **** 0.06
36030 H 220.08983451915515 163.18749745689317 186.04258882050485 H 0.0 **** 0.06
36031 C 66.07943402497216 244.39573676413778 212.2656668685586 C 0.0 **** -0.24
36032 H 65.25498893522092 243.6877092108968 212.35377960006463 H 0.0 **** 0.06
36033 H 65.92065414017449 245.02988057849515 211.3934563779486 H 0.0 **** 0.06
36034 H 67.01612506584351 243.84961494690899 212.1522233685014 H 0.0 **** 0.06
36035 H 66.12467387367766 245.01333764735276 213.16196596026802 H 0.0 **** 0.06
36036 C 176.32846356949858 142.50336652770775 221.4770502754709 C 0.0 **** -0.24
36037 H 175.47956314317747 141.89596167131828 221.16372939813525 H 0.0 **** 0.06
36038 H 177.2044025545673 142.2386560935152 220.88414146536118 H 0.0 **** 0.06
36039 H 176.53459016721223 142.3224593929154 222.53240851420085 H 0.0 **** 0.06
36040 H 176.0940629782686 143.5582337200906 221.32818740125214 H 0.0 **** 0.06
36041 C 207.23997458778166 28.209548891772585 221.1057601780637 C 0.0 **** -0.24
36042 H 207.7227690742434 28.26853120490317 220.1299916884165 H 0.0 **** 0.06
36043 H 206.39322064074744 27.526103310486832 221.05024035637246 H 0.0 **** 0.06
36044 H 206.88991914580794 29.19956840596177 221.3977860616784 H 0.0 **** 0.06
36045 H 207.95512315588655 27.844595470739165 221.84250239105057 H 0.0 **** 0.06
36046 C 146.76872790787053 205.5953418029942 233.79823767447584 C 0.0 **** -0.24
36047 H 146.48057289737253 205.81405344187638 234.8262208811837 H 0.0 **** 0.06
36048 H 146.31650031479623 204.65396189838623 233.48596431751886 H 0.0 **** 0.06
36049 H 147.85426041134468 205.51649447533853 233.73468567154762 H 0.0 **** 0.06
36050 H 146.42415356038987 206.39831569004127 233.14681613479573 H 0.0 **** 0.06
36051 C 180.07506903783164 107.71894509560946 163.0503584894183 C 0.0 **** -0.24
36052 H 180.55820278987562 107.82648412213388 164.02111834500008 H 0.0 **** 0.06
36053 H 180.19386671914634 108.64150138704778 162.4811190140369 H 0.0 **** 0.06
36054 H 179.01404906577358 107.51457181928455 163.19311965368092 H 0.0 **** 0.06
36055 H 180.5338337808727 106.89417543276235 162.5050828873686 H 0.0 **** 0.06
36056 C 159.7903558470077 67.95480335304225 52.14620158832858 C 0.0 **** -0.24
36057 H 159.90443621735278 67.33565258717928 53.035843406466526 H 0.0 **** 0.06
36058 H 158.92919714776093 68.61255498359961 52.26949825991842 H 0.0 **** 0.06
36059 H 159.6376472995385 67.31567508852137 51.276109215356726 H 0.0 **** 0.06
36060 H 160.68838759817584 68.55438579137612 52.00351863483567 H 0.0 **** 0.06
36061 C 207.7824386958028 127.09715855719662 205.57063761724447 C 0.0 **** -0.24
36062 H 207.1208635914753 127.72104886631539 206.16970005983333 H 0.0 **** 0.06
36063 H 208.40061130586298 126.48637478379865 206.2285687496876 H 0.0 **** 0.06
36064 H 208.42174171744648 127.73129283745808 204.95622901345723 H 0.0 **** 0.06
36065 H 207.18697699046078 126.45020821717304 204.9258793748183 H 0.0 **** 0.06
36066 C 89.97647547797706 82.52429295479445 28.706696412593374 C 0.0 **** -0.24
36067 H 89.79281409847763 83.4886293143339 28.233218377180577 H 0.0 **** 0.06
36068 H 89.66833486966271 81.72448843675971 28.03274710090342 H 0.0 **** 0.06
36069 H 89.40594373857189 82.45945751805502 29.63301464427377 H 0.0 **** 0.06
36070 H 91.04008736750438 82.42499103327168 28.927346503441584 H 0.0 **** 0.06
36071 C 99.19317557943134 175.86057287837332 186.82990809459386 C 0.0 **** -0.24
36072 H 99.86513362209917 175.27728008040012 187.45911351847943 H 0.0 **** 0.06
36073 H 99.4107311107305 176.92120753577998 186.95105375966128 H 0.0 **** 0.06
36074 H 98.16072475055736 175.66474456172693 187.12263688344848 H 0.0 **** 0.06
36075 H 99.33530439467734 175.57698948556117 185.7870776057903 H 0.0 **** 0.06
36076 C 41.43951683816803 59.31538563243478 232.1522377908637 C 0.0 **** -0.24
36077 H 40.92541638662638 59.770143437069095 231.30582853515045 H 0.0 **** 0.06
36078 H 41.26040002228146 58.23998469475123 232.150636814282 H 0.0 **** 0.06
36079 H 41.06264268651918 59.746259085772465 233.0795788854188 H 0.0 **** 0.06
36080 H 42.50989560950748 59.50612028937482 232.0709103574644 H 0.0 **** 0.06
36081 C 160.6180827507997 202.87386553092438 107.15231080464105 C 0.0 **** -0.24
36082 H 161.06472852568953 203.81958825234852 106.84628523465204 H 0.0 **** 0.06
36083 H 160.30230731706354 202.9419670727874 108.19394684314895 H 0.0 **** 0.06
36084 H 161.3520056322491 202.07434086644378 107.04719138632183 H 0.0 **** 0.06
36085 H 159.7540721868671 202.6597712326464 106.52364878042471 H 0.0 **** 0.06
36086 C 144.58563336800688 246.24993539118077 98.49316100664345 C 0.0 **** -0.24
36087 H 145.4501919315685 245.80491783433195 98.98632471096741 H 0.0 **** 0.06
36088 H 143.76452206417983 246.33110117053494 99.20592668994192 H 0.0 **** 0.06
36089 H 144.28035127414987 245.6199249868332 97.65698978361203 H 0.0 **** 0.06
36090 H 144.84738700436625 247.2406362707037 98.1248169465108 H 0.0 **** 0.06
36091 C 233.82112189440582 29.87398077994328 121.45453873610327 C 0.0 **** -0.24
36092 H 233.7610623328989 28.792639056619038 121.33624467953777 H 0.0 **** 0.06
36093 H 233.1267873422429 30.193592255341088 122.23190712233449 H 0.0 **** 0.06
36094 H 233.5600687111111 30.357436441218653 120.51302748802473 H 0.0 **** 0.06
36095 H 234.83684984008687 30.153092087880935 121.73650539551963 H 0.0 **** 0.06
36096 C 83.68849829542873 28.910482337403437 111.7147875774584 C 0.0 **** -0.24
36097 H 83.87211067235225 28.319895841592157 112.61253066901 H 0.0 **** 0.06
36098 H 82.71786193641 28.64377441672255 111.29670682899959 H 0.0 **** 0.06
36099 H 84.46896284379093 28.70789305641385 110.98143824751608 H 0.0 **** 0.06
36100 H 83.6965159990443 29.970151047046414 111.97043090977931 H 0.0 **** 0.06
36101 C 109.76711745485136 53.78726310346008 21.967289808207028 C 0.0 **** -0.24
36102 H 110.83314642205977 53.60656117117142 22.10472932366997 H 0.0 **** 0.06
36103 H 109.27484848971787 52.85560380674082 21.68890915686285 H 0.0 **** 0.06
36104 H 109.6228632687509 54.52492633440491 21.177367492627667 H 0.0 **** 0.06
36105 H 109.33972066085613 54.16187500221665 22.89691041147708 H 0.0 **** 0.06
36106 C 9.103295645126906 207.33484220189328 177.9736623632107 C 0.0 **** -0.24
36107 H 8.912384430429455 207.49496548243118 179.03476886659024 H 0.0 **** 0.06
36108 H 10.104089727370564 207.69056736904102 177.72828840015467 H 0.0 **** 0.06
36109 H 8.36814277282187 207.88303522740253 177.38474197202044 H 0.0 **** 0.06
36110 H 9.030675268173667 206.27109283849725 177.74753155924108 H 0.0 **** 0.06
36111 C 171.4846428360403 221.05065958603691 117.29625556257821 C 0.0 **** -0.24
36112 H 172.06699964696628 221.43009454832102 116.45657513294461 H 0.0 **** 0.06
36113 H 170.4538958022996 221.39404476530223 117.2078715099826 H 0.0 **** 0.06
36114 H 171.91241258189564 221.41785155777828 118.22921519231556 H 0.0 **** 0.06
36115 H 171.50717992198372 219.96028864629562 117.29026592785306 H 0.0 **** 0.06
36116 C 194.55335562345857 75.5527498733068 211.139438393715 C 0.0 **** -0.24
36117 H 193.53333576921142 75.17287106577805 211.19467565139064 H 0.0 **** 0.06
36118 H 194.5453429513525 76.63643208000823 211.26187308594777 H 0.0 **** 0.06
36119 H 194.98351140757825 75.29928963747287 210.17033546701137 H 0.0 **** 0.06
36120 H 195.15155452662904 75.10184754887516 211.93163328211534 H 0.0 **** 0.06
36121 C 129.4319415230768 230.51056222459738 152.2872147319478 C 0.0 **** -0.24
36122 H 129.3465333136769 230.29462937573933 153.35204476932853 H 0.0 **** 0.06
36123 H 130.48201575331976 230.6442503326709 152.0267072030412 H 0.0 **** 0.06
36124 H 128.8809378612919 231.42291994366911 152.05598337699183 H 0.0 **** 0.06
36125 H 129.01718214286592 229.68134755292607 151.71511837440198 H 0.0 **** 0.06
36126 C 183.6769319632875 158.43747108883935 27.579565773724923 C 0.0 **** -0.24
36127 H 183.0208228977936 158.95721969581396 26.882139907956812 H 0.0 **** 0.06
36128 H 184.390124006131 157.8291588386167 27.023847428217863 H 0.0 **** 0.06
36129 H 183.0808101233472 157.7966741989097 28.229731654597018 H 0.0 **** 0.06
36130 H 184.21522899915482 159.16797224377908 28.18431856849675 H 0.0 **** 0.06
36131 C 227.39369606604822 227.16916391997842 228.62352834909487 C 0.0 **** -0.24
36132 H 227.5900501732686 227.24712087894875 227.55508306377288 H 0.0 **** 0.06
36133 H 227.4973266847013 226.13015688822853 228.9380417232606 H 0.0 **** 0.06
36134 H 226.38091612722502 227.51328485205767 228.83300185072952 H 0.0 **** 0.06
36135 H 228.1066439881522 227.7869945246136 229.17002736915654 H 0.0 **** 0.06
36136 C 242.86891943508016 222.94958115071464 96.97774504822596 C 0.0 **** -0.24
36137 H 242.8835475198318 221.88004395455127 97.18851453972363 H 0.0 **** 0.06
36138 H 243.20393184214868 223.49767964832392 97.85896029073365 H 0.0 **** 0.06
36139 H 241.85372659398448 223.25477180322926 96.72350159613345 H 0.0 **** 0.06
36140 H 243.53354953055077 223.1641440931221 96.14114828470804 H 0.0 **** 0.06
36141 C 107.27014034259463 240.76090213365384 166.5190421535065 C 0.0 **** -0.24
36142 H 107.77433961773434 240.53863310677642 167.4593708923646 H 0.0 **** 0.06
36143 H 106.68290589485508 239.89599361631846 166.20905902843865 H 0.0 **** 0.06
36144 H 108.01250289530782 240.98854216705487 165.75466566529886 H 0.0 **** 0.06
36145 H 106.61170631465137 241.61839568435184 166.65322858383314 H 0.0 **** 0.06
36146 C 99.16687274059547 205.8015227408879 80.98097478126627 C 0.0 **** -0.24
36147 H 98.34900166277518 205.5189401410126 81.64391561185832 H 0.0 **** 0.06
36148 H 100.04065544966232 206.06706714531623 81.57679566418938 H 0.0 **** 0.06
36149 H 98.86525840614459 206.6566936355348 80.37621027955043 H 0.0 **** 0.06
36150 H 99.41227244848048 204.9637066418046 80.32892897848419 H 0.0 **** 0.06
36151 C 179.05769383365634 228.4554385633861 70.85747896209065 C 0.0 **** -0.24
36152 H 178.56493548647472 229.01097671179963 71.65532364929072 H 0.0 **** 0.06
36153 H 178.45159814879247 228.5073401939016 69.95206478762572 H 0.0 **** 0.06
36154 H 179.17359660532566 227.41359317560628 71.15777933474277 H 0.0 **** 0.06
36155 H 180.03847064883482 228.88928042105348 70.66377133154202 H 0.0 **** 0.06
36156 C 66.19162904820726 68.02414830367695 40.509874930914776 C 0.0 **** -0.24
36157 H 66.07705207972 68.62490940714449 41.41181050418311 H 0.0 **** 0.06
36158 H 66.65766536483667 68.62626084699528 39.72988505538946 H 0.0 **** 0.06
36159 H 65.21101680451213 67.68693733754779 40.17187052995402 H 0.0 **** 0.06
36160 H 66.818800958867 67.15950277272987 40.726136498640656 H 0.0 **** 0.06
36161 C 233.1995778709496 57.33476365368125 93.58953856152587 C 0.0 **** -0.24
36162 H 232.82113930180736 56.357964457428835 93.89113622513517 H 0.0 **** 0.06
36163 H 233.76496573142313 57.23525771781473 92.6625996683876 H 0.0 **** 0.06
36164 H 233.8490184517276 57.72987886123113 94.37095616930696 H 0.0 **** 0.06
36165 H 232.36382843207198 58.01645362990334 93.43404510981927 H 0.0 **** 0.06
36166 C 123.51122957936408 56.77598493743477 83.3832710304614 C 0.0 **** -0.24
36167 H 123.50989026609506 55.97730684726247 84.12531691020385 H 0.0 **** 0.06
36168 H 122.5494460423518 57.28849979804039 83.40007916735979 H 0.0 **** 0.06
36169 H 123.68044684438868 56.350551955247795 82.39424026193811 H 0.0 **** 0.06
36170 H 124.30634071028689 57.48450948392832 83.61450213002277 H 0.0 **** 0.06
36171 C 130.78372658894762 242.67211225901195 59.96790861267036 C 0.0 **** -0.24
36172 H 131.33302142105921 242.44457587154935 60.880659911952336 H 0.0 **** 0.06
36173 H 129.7334034222388 242.8410189201147 60.20937159733336 H 0.0 **** 0.06
36174 H 130.86678488345115 241.8349611198125 59.2749808699466 H 0.0 **** 0.06
36175 H 131.19943350251353 243.56863199057796 59.50719860745713 H 0.0 **** 0.06
36176 C 142.51349386098408 183.56475679973624 17.271626886850328 C 0.0 **** -0.24
36177 H 143.59616944166106 183.47644312761662 17.363908278591353 H 0.0 **** 0.06
36178 H 142.25010814555705 183.73961554678183 16.228912187725527 H 0.0 **** 0.06
36179 H 142.1645490238865 184.39855966124475 17.88091980415213 H 0.0 **** 0.06
36180 H 142.0443633903296 182.6421375329047 17.615481322738418 H 0.0 **** 0.06
36181 C 138.77984994909008 101.62330190631869 183.04565363614012 C 0.0 **** -0.24
36182 H 139.5369579429115 101.07099310502994 183.60237263496305 H 0.0 **** 0.06
36183 H 137.8422443812479 101.6131859618678 183.6010769269445 H 0.0 **** 0.06
36184 H 138.63145066717343 101.15490812113521 182.07284405509256 H 0.0 **** 0.06
36185 H 139.1101837029314 102.65274710142157 182.90654299081558 H 0.0 **** 0.06
36186 C 109.03810636935191 191.09621995934629 54.47607846835001 C 0.0 **** -0.24
36187 H 110.00512550246088 191.5828899766706 54.34634078555172 H 0.0 **** 0.06
36188 H 109.05292188921334 190.12173147635542 53.98663257898005 H 0.0 **** 0.06
36189 H 108.25791928430635 191.7138327034088 54.03228778585466 H 0.0 **** 0.06
36190 H 108.83788320168534 190.96557921525397 55.53955731090659 H 0.0 **** 0.06
36191 C 118.50717934043797 218.23996154092458 144.63823375322886 C 0.0 **** -0.24
36192 H 118.24755570193622 219.20658644147005 145.07111762598674 H 0.0 **** 0.06
36193 H 119.19868440709047 218.3875982046086 143.80826041963158 H 0.0 **** 0.06
36194 H 117.60382469845436 217.74907285144184 144.27689008106492 H 0.0 **** 0.06
36195 H 118.98002194031022 217.61764173431408 145.39808670243977 H 0.0 **** 0.06
36196 C 195.68131601722385 149.353364682947 129.14409083763863 C 0.0 **** -0.24
36197 H 195.25116029312284 148.4044179916082 128.82565436405153 H 0.0 **** 0.06
36198 H 196.3115755173277 149.7504679114068 128.34855482051543 H 0.0 **** 0.06
36199 H 196.28058148692838 149.1983861203501 130.04078705277263 H 0.0 **** 0.06
36200 H 194.8798820504931 150.0603435562586 129.36005853219817 H 0.0 **** 0.06
36201 C 12.473786334188588 126.66044428341803 20.360265063107732 C 0.0 **** -0.24
36202 H 12.28279418429824 127.73303773272059 20.32635547638219 H 0.0 **** 0.06
36203 H 11.550615594448033 126.13464676879599 20.601502117212164 H 0.0 **** 0.06
36204 H 13.222703316380972 126.45013691822606 21.12342017789686 H 0.0 **** 0.06
36205 H 12.840465578740037 126.32676032008234 19.389499945239237 H 0.0 **** 0.06
36206 C 30.61919812148963 118.84696939801438 19.944887617731837 C 0.0 **** -0.24
36207 H 31.04645654182157 118.29153440549635 20.780473514980912 H 0.0 **** 0.06
36208 H 29.83988598628727 118.24897865014279 19.472587681970396 H 0.0 **** 0.06
36209 H 31.401987967428298 119.065835182308 19.217749111547477 H 0.0 **** 0.06
36210 H 30.191511001450266 119.78051392320177 20.310656556996975 H 0.0 **** 0.06
36211 C 1.5828291131639673 3.4881788165007492 221.01618994257635 C 0.0 **** -0.24
36212 H 1.7981983234711123 3.2753420693293265 222.06335668799576 H 0.0 **** 0.06
36213 H 0.5348684690552687 3.770203451331028 220.91062872530415 H 0.0 **** 0.06
36214 H 1.7822644104688123 2.599429532331129 220.4166735953873 H 0.0 **** 0.06
36215 H 2.2158984981393814 4.3067483318642985 220.6740077255989 H 0.0 **** 0.06
36216 C 7.407253479349009 63.17821391304793 50.00971566298223 C 0.0 **** -0.24
36217 H 6.576501339674309 63.876138782807146 49.913422816693924 H 0.0 **** 0.06
36218 H 8.022332853539496 63.2200890127223 49.110095509201926 H 0.0 **** 0.06
36219 H 7.019452069766459 62.16743931941741 50.1376584618648 H 0.0 **** 0.06
36220 H 8.011391569656013 63.448066288433154 50.87654577497388 H 0.0 **** 0.06
36221 C 72.98619720396684 184.36388403798645 53.29826679137281 C 0.0 **** -0.24
36222 H 73.20924467916967 185.28452489858162 52.75923265834612 H 0.0 **** 0.06
36223 H 73.19638440095952 184.50507757176013 54.35901242954955 H 0.0 **** 0.06
36224 H 73.60594775620874 183.55640275768542 52.90982272418893 H 0.0 **** 0.06
36225 H 71.93444002524444 184.11197209234905 53.16623737119912 H 0.0 **** 0.06
36226 C 32.962564321541635 135.4638206770651 130.01565554252758 C 0.0 **** -0.24
36227 H 32.855482487062915 135.63067584172023 128.94372951614042 H 0.0 **** 0.06
36228 H 33.95960316820758 135.07358698280325 130.22389527703538 H 0.0 **** 0.06
36229 H 32.21408681304749 134.7445948056431 130.34741317846056 H 0.0 **** 0.06
36230 H 32.82275443522168 136.40571550941252 130.54519485175294 H 0.0 **** 0.06
36231 C 89.53638609456777 219.5859695651522 69.49307527532923 C 0.0 **** -0.24
36232 H 90.4798912446449 219.0417173085077 69.45173422848839 H 0.0 **** 0.06
36233 H 89.7365237107824 220.65719213334137 69.50943713587 H 0.0 **** 0.06
36234 H 88.99291062547599 219.30325613059316 70.39431946639408 H 0.0 **** 0.06
36235 H 88.93772639221638 219.34039031865657 68.61582105605825 H 0.0 **** 0.06
36236 C 97.07655278734404 157.3411428932453 42.382319093463565 C 0.0 **** -0.24
36237 H 98.14364778868597 157.5618896226592 42.359698152668926 H 0.0 **** 0.06
36238 H 96.65331643838138 157.69437686342675 43.322761716141315 H 0.0 **** 0.06
36239 H 96.92605593598273 156.26483013147808 42.2979680014615 H 0.0 **** 0.06
36240 H 96.58445746110291 157.84365605189268 41.550016097226916 H 0.0 **** 0.06
36241 C 71.23595907654249 199.2877183885984 233.27326345601017 C 0.0 **** -0.24
36242 H 72.08509501322689 199.49519799925613 233.92451528309263 H 0.0 **** 0.06
36243 H 70.36216999761535 199.83309172082681 233.6321215879108 H 0.0 **** 0.06
36244 H 71.02622047693004 198.21824751343803 233.28140798564752 H 0.0 **** 0.06
36245 H 71.47127684758033 199.6048121084768 232.25722620768647 H 0.0 **** 0.06
36246 C 93.53596063076893 114.90438152323239 244.53323519255153 C 0.0 **** -0.24
36247 H 93.4522264897403 115.7593206914922 243.86229392747893 H 0.0 **** 0.06
36248 H 94.54822169371874 114.50222599842405 244.4854330059678 H 0.0 **** 0.06
36249 H 92.82470765953147 114.13565374098908 244.23239741365677 H 0.0 **** 0.06
36250 H 93.31836848427119 115.22088330594133 245.55358310062505 H 0.0 **** 0.06
36251 C 96.73292949784849 79.00048696080921 113.76757394370591 C 0.0 **** -0.24
36252 H 95.69983461524743 79.07478742495238 114.10893297111383 H 0.0 **** 0.06
36253 H 97.396581365309 78.94573783120353 114.63044664549321 H 0.0 **** 0.06
36254 H 96.9817542014676 79.87906706416106 113.17251358031697 H 0.0 **** 0.06
36255 H 96.85115467490775 78.1039223873313 113.16059756535964 H 0.0 **** 0.06
36256 C 134.66656190498142 19.15432895068298 52.10792678181147 C 0.0 **** -0.24
36257 H 133.61607999640157 19.41762021331222 52.23132467249148 H 0.0 **** 0.06
36258 H 135.27212383700473 20.060720545008095 52.1205202826859 H 0.0 **** 0.06
36259 H 134.8023618258439 18.64035407235957 51.15580032736149 H 0.0 **** 0.06
36260 H 134.97558924368641 18.498402353082582 52.92162388085748 H 0.0 **** 0.06
36261 C 185.31902151525782 76.32964716228918 13.796109690984792 C 0.0 **** -0.24
36262 H 184.3378878930202 76.44610475533545 14.25438471199216 H 0.0 **** 0.06
36263 H 185.69860669117276 77.30610783915984 13.495049546280143 H 0.0 **** 0.06
36264 H 185.23677965252548 75.68574517854103 12.920544114181453 H 0.0 **** 0.06
36265 H 186.00449938773883 75.87892143849419 14.51493998622098 H 0.0 **** 0.06
36266 C 53.02759587966926 48.154202811492496 30.27746753027246 C 0.0 **** -0.24
36267 H 52.69180711342159 48.22682819754115 31.312454021852005 H 0.0 **** 0.06
36268 H 53.187376774775046 47.10771910480824 30.01928449712804 H 0.0 **** 0.06
36269 H 53.960971000669076 48.70429617603608 30.159820863252236 H 0.0 **** 0.06
36270 H 52.26931066341406 48.57986267110394 29.61906355160548 H 0.0 **** 0.06
36271 C 107.77464590564267 42.71631059423396 72.8882534154896 C 0.0 **** -0.24
36272 H 107.10082924556738 43.56091008761213 73.02762472091342 H 0.0 **** 0.06
36273 H 107.22462759004628 41.7856558508593 73.02910856753525 H 0.0 **** 0.06
36274 H 108.5838671864957 42.77358063124238 73.6165072408364 H 0.0 **** 0.06
36275 H 108.18907886463833 42.74506240666143 71.88117535891746 H 0.0 **** 0.06
36276 C 145.19996057495183 238.87345892735027 223.05792125858625 C 0.0 **** -0.24
36277 H 144.4574660255703 238.9572374851217 223.85306061141304 H 0.0 **** 0.06
36278 H 144.7210734331573 239.04905003171538 222.0948426353761 H 0.0 **** 0.06
36279 H 145.6339287747754 237.8735256995968 223.07229879458347 H 0.0 **** 0.06
36280 H 145.98495907619537 239.61362413274986 223.21431305803088 H 0.0 **** 0.06
36281 C 15.260074795070238 121.98951874110489 231.14360930930474 C 0.0 **** -0.24
36282 H 16.229436825541157 122.35740321851858 231.48129976417113 H 0.0 **** 0.06
36283 H 15.132756106292035 120.95621531125403 231.46688867091433 H 0.0 **** 0.06
36284 H 15.210462587369861 122.0403104964767 230.05618097142485 H 0.0 **** 0.06
36285 H 14.469459157801296 122.60584765164475 231.57267709679044 H 0.0 **** 0.06
36286 C 169.51186272605239 163.76738756022073 167.0282413118486 C 0.0 **** -0.24
36287 H 169.39656502027182 164.4619273941124 167.86077625643745 H 0.0 **** 0.06
36288 H 170.56365285868137 163.70883588595748 166.74780096224282 H 0.0 **** 0.06
36289 H 168.9272911535647 164.1194863352436 166.17850011891943 H 0.0 **** 0.06
36290 H 169.15998102101733 162.7805241849422 167.32746949404526 H 0.0 **** 0.06
36291 C 56.77559552237042 186.45690829690957 225.6720291092297 C 0.0 **** -0.24
36292 H 57.66488914528253 186.12454865927748 226.20732948298274 H 0.0 **** 0.06
36293 H 56.669025690513905 185.8826317342262 224.7523504379459 H 0.0 **** 0.06
36294 H 56.87225612551762 187.5164176639545 225.4313878520892 H 0.0 **** 0.06
36295 H 55.89665526546065 186.30649722704453 226.29983092151295 H 0.0 **** 0.06
36296 C 90.36679062289844 97.74930642344162 178.33265851936966 C 0.0 **** -0.24
36297 H 91.19216272183982 97.08907779759971 178.0651578002017 H 0.0 **** 0.06
36298 H 89.46013094537238 97.15880561711757 178.47064986734583 H 0.0 **** 0.06
36299 H 90.20988507203819 98.4771614849889 177.53670423367433 H 0.0 **** 0.06
36300 H 90.60597709397507 98.27053433037884 179.25963957145018 H 0.0 **** 0.06
36301 C 80.12584770489252 213.22753707301473 101.65656677171245 C 0.0 **** -0.24
36302 H 80.70951237224108 212.42846898634718 102.11263508781846 H 0.0 **** 0.06
36303 H 79.92300635739369 213.99933916635172 102.39977098050511 H 0.0 **** 0.06
36304 H 79.18319384696537 212.82420299346165 101.28524628521373 H 0.0 **** 0.06
36305 H 80.68650718758627 213.65935581484962 100.82715065545821 H 0.0 **** 0.06
36306 C 118.65595844653174 198.86375824869683 15.404073251291152 C 0.0 **** -0.24
36307 H 119.45287998260781 198.65899837024702 14.688705490634817 H 0.0 **** 0.06
36308 H 118.81653374339032 199.84307474850633 15.855682975557102 H 0.0 **** 0.06
36309 H 118.66054020222973 198.09997845946904 16.181801360265894 H 0.0 **** 0.06
36310 H 117.69557255920762 198.8533324489134 14.889995625077944 H 0.0 **** 0.06
36311 C 137.55072767289866 172.6441819814924 46.96254345019612 C 0.0 **** -0.24
36312 H 137.83839541853848 172.66795739530423 48.01444771561168 H 0.0 **** 0.06
36313 H 136.51113680583177 172.32816467756612 46.87797715358853 H 0.0 **** 0.06
36314 H 138.18913977113442 171.94140301678408 46.427682455908865 H 0.0 **** 0.06
36315 H 137.66519575754003 173.63879353583522 46.53269641567442 H 0.0 **** 0.06
36316 C 140.50773546672977 193.09486342774164 122.35933571822625 C 0.0 **** -0.24
36317 H 140.9328818482681 193.51971054493347 121.44976381076589 H 0.0 **** 0.06
36318 H 140.38672819498612 193.8810245991457 123.10520127623798 H 0.0 **** 0.06
36319 H 141.17644662433716 192.32589764879236 122.74652893932097 H 0.0 **** 0.06
36320 H 139.5366165933812 192.65416264634058 122.13539930388592 H 0.0 **** 0.06
36321 C 191.58369204753575 140.84626524151096 196.53178802920746 C 0.0 **** -0.24
36322 H 192.14855482853045 141.63120530379774 197.03499247013153 H 0.0 **** 0.06
36323 H 190.5523329383392 140.85726058860772 196.8864626322112 H 0.0 **** 0.06
36324 H 192.03299150246465 139.87801213008385 196.7508804163053 H 0.0 **** 0.06
36325 H 191.60018199296496 141.02021668269788 195.45616981587412 H 0.0 **** 0.06
36326 C 73.71252420731287 196.20656879353982 40.81555702161063 C 0.0 **** -0.24
36327 H 72.85630897804424 196.08602046249774 40.152270397992254 H 0.0 **** 0.06
36328 H 74.47834147433676 195.47549320465728 40.55486184754686 H 0.0 **** 0.06
36329 H 73.39687758910259 196.0508162781841 41.84716835129532 H 0.0 **** 0.06
36330 H 74.11744053753088 197.2122619904966 40.706982074970924 H 0.0 **** 0.06
36331 C 0.45653172245616247 16.873354806881906 180.92108512684462 C 0.0 **** -0.24
36332 H -0.4529091772752736 17.182750932803145 180.40570773179303 H 0.0 **** 0.06
36333 H 0.5730311007042417 17.45990122847374 181.83277573550475 H 0.0 **** 0.06
36334 H 1.315868872093489 17.035896966054878 180.27070041251284 H 0.0 **** 0.06
36335 H 0.3879454960674309 15.815775533542677 181.17577430730162 H 0.0 **** 0.06
36336 C 30.974872747730018 245.83068973512462 33.45901519723152 C 0.0 **** -0.24
36337 H 30.29159747353171 246.66610238907535 33.30404367375135 H 0.0 **** 0.06
36338 H 30.40973196114632 244.95206417415199 33.76972821935844 H 0.0 **** 0.06
36339 H 31.696509006155765 246.09118716970073 34.234296295610946 H 0.0 **** 0.06
36340 H 31.502549741913725 245.61550139077252 32.529942254134866 H 0.0 **** 0.06
36341 C 223.9662885141547 123.64291670051301 132.4122318368943 C 0.0 **** -0.24
36342 H 223.94316503485396 122.87409157990655 133.18407042135834 H 0.0 **** 0.06
36343 H 224.07637379846398 123.17237235229837 131.43449422934395 H 0.0 **** 0.06
36344 H 224.80728137401695 124.31241105471761 132.59101909066823 H 0.0 **** 0.06
36345 H 223.03618294946864 124.21231159401938 132.43896536506975 H 0.0 **** 0.06
36346 C 87.37028798521783 35.276658599882325 158.15742126012833 C 0.0 **** -0.24
36347 H 86.84451082487126 36.16781435805777 157.81481746539555 H 0.0 **** 0.06
36348 H 86.676944143389 34.436675346685746 158.19291795144332 H 0.0 **** 0.06
36349 H 87.77644773402614 35.45576172212881 159.1527286975537 H 0.0 **** 0.06
36350 H 88.18416112903938 35.04742397564493 157.46892974223883 H 0.0 **** 0.06
36351 C 17.294687110036733 105.27832590357934 236.94030727369946 C 0.0 **** -0.24
36352 H 16.397330762518123 105.89400343186415 236.8917962260402 H 0.0 **** 0.06
36353 H 17.192774650557595 104.43287264695462 236.25994839034553 H 0.0 **** 0.06
36354 H 17.429052263860996 104.91221806916957 237.95890122757706 H 0.0 **** 0.06
36355 H 18.16036368449832 105.87507935573021 236.65138693272957 H 0.0 **** 0.06
36356 C 148.11341372246426 181.59310004490231 205.97868370409574 C 0.0 **** -0.24
36357 H 148.8498759737333 181.50708443452197 206.77789596645266 H 0.0 **** 0.06
36358 H 148.56193426609687 182.101024860956 205.12487443225706 H 0.0 **** 0.06
36359 H 147.25726737223812 182.16613319807024 206.33513146239716 H 0.0 **** 0.06
36360 H 147.7850485958958 180.59754965554438 205.67915851253366 H 0.0 **** 0.06
36361 C 201.38152975128116 136.12369404965986 127.45374038571208 C 0.0 **** -0.24
36362 H 200.94392585959565 135.49012106210225 128.22526139838672 H 0.0 **** 0.06
36363 H 200.93215422846941 137.1157395109796 127.50112195928824 H 0.0 **** 0.06
36364 H 201.19257118017134 135.6856418758942 126.47324228322597 H 0.0 **** 0.06
36365 H 202.456286733922 136.20262088905207 127.61491278908935 H 0.0 **** 0.06
36366 C 165.00124084029844 29.99703282428787 18.842023719776506 C 0.0 **** -0.24
36367 H 165.49411831447003 29.833632650937716 17.884314089711353 H 0.0 **** 0.06
36368 H 164.82995311173312 31.064926339939646 18.984962666300504 H 0.0 **** 0.06
36369 H 165.6332505447354 29.619803548253657 19.645558018401545 H 0.0 **** 0.06
36370 H 164.0462403392932 29.471193114031024 18.853168972333776 H 0.0 **** 0.06
36371 C 83.42325462140062 188.77894086281498 126.41196513240627 C 0.0 **** -0.24
36372 H 83.96756098958124 188.50897685878124 127.31655099154042 H 0.0 **** 0.06
36373 H 83.17033327972075 189.83956621124827 126.4423995040311 H 0.0 **** 0.06
36374 H 82.50851618493394 188.18830332202148 126.35004203275585 H 0.0 **** 0.06
36375 H 84.04485882243637 188.57753276255698 125.53987995451942 H 0.0 **** 0.06
36376 C 154.02091361818475 112.21313837359583 90.77244189655406 C 0.0 **** -0.24
36377 H 154.4063916531344 111.65309456841254 91.62399822643931 H 0.0 **** 0.06
36378 H 153.82376581071622 111.52914272836551 89.94673112855381 H 0.0 **** 0.06
36379 H 154.7572759917018 112.9543253160532 90.46255492436924 H 0.0 **** 0.06
36380 H 153.0962210171864 112.71599088155196 91.05648330685383 H 0.0 **** 0.06
36381 C 103.8098278994492 238.7624129303021 148.81353634666175 C 0.0 **** -0.24
36382 H 103.26051380103573 239.46278765364332 149.44203760304663 H 0.0 **** 0.06
36383 H 103.88703062402058 239.1647596093744 147.8026938894822 H 0.0 **** 0.06
36384 H 103.28296296470464 237.80797331306192 148.78635293069883 H 0.0 **** 0.06
36385 H 104.80880420803575 238.61413114512888 149.22306096341956 H 0.0 **** 0.06
36386 C 70.37642038898943 9.00073563992386 15.0426369012186 C 0.0 **** -0.24
36387 H 70.34623099267063 8.200749082131452 14.303528203062967 H 0.0 **** 0.06
36388 H 69.8512650889528 8.681926978112642 15.943915178386135 H 0.0 **** 0.06
36389 H 69.89345424081267 9.889976079771898 14.637040164409939 H 0.0 **** 0.06
36390 H 71.4136258895208 9.229811638582788 15.287947946482689 H 0.0 **** 0.06
36391 C 23.638989694520518 12.990539535657746 138.20064081384575 C 0.0 **** -0.24
36392 H 23.76305279853264 12.502794477768845 139.16743638302958 H 0.0 **** 0.06
36393 H 23.29732001809137 12.258879176231318 137.46713107350723 H 0.0 **** 0.06
36394 H 24.592695039394556 13.408669590112282 137.87991361902561 H 0.0 **** 0.06
36395 H 22.902191434042805 13.789018584108874 138.28891370244116 H 0.0 **** 0.06
36396 C 38.48252548735168 23.864138593962565 74.40062253056252 C 0.0 **** -0.24
36397 H 39.16930997038541 24.493390527211375 73.83284646035324 H 0.0 **** 0.06
36398 H 38.80188281031772 22.824475832340994 74.33138520450481 H 0.0 **** 0.06
36399 H 37.47673250999566 23.96401227529779 73.99168939357887 H 0.0 **** 0.06
36400 H 38.483028641726904 24.175624390405716 75.44473215392756 H 0.0 **** 0.06
36401 C 152.56622341804976 231.45616476243316 86.14655212685969 C 0.0 **** -0.24
36402 H 152.52210761467 231.51925667022994 87.23344253894734 H 0.0 **** 0.06
36403 H 151.62101562719974 231.06518312510642 85.76661899446808 H 0.0 **** 0.06
36404 H 153.37869658099453 230.79098460646816 85.85327189668664 H 0.0 **** 0.06
36405 H 152.74130615658743 232.44850086707993 85.73171884349159 H 0.0 **** 0.06
36406 C 155.3455567397067 156.82090680622122 79.5275593025039 C 0.0 **** -0.24
36407 H 155.60500728087308 155.99321599012382 78.86743060352495 H 0.0 **** 0.06
36408 H 156.2562838927674 157.25573196781355 79.93850296465172 H 0.0 **** 0.06
36409 H 154.7171904605092 156.45402516980553 80.33909565563232 H 0.0 **** 0.06
36410 H 154.80304030366167 157.57900108949002 78.96280577915746 H 0.0 **** 0.06
36411 C 34.805371317149564 40.8603960075811 213.36114045503004 C 0.0 **** -0.24
36412 H 35.50041281345992 41.08565625127116 214.17029662939518 H 0.0 **** 0.06
36413 H 34.19188027316082 40.003283492238864 213.639193410821 H 0.0 **** 0.06
36414 H 35.365657832579615 40.62932257776046 212.45617601267273 H 0.0 **** 0.06
36415 H 34.164643199282324 41.723577169523395 213.18201110011793 H 0.0 **** 0.06
36416 C 33.90666682621661 152.33837447456918 234.93042682975235 C 0.0 **** -0.24
36417 H 34.11193570844718 151.70597503009412 235.79315284692476 H 0.0 **** 0.06
36418 H 32.883530861409255 152.17203696773913 234.59375607416732 H 0.0 **** 0.06
36419 H 34.59868064773801 152.0901409580614 234.12564700778213 H 0.0 **** 0.06
36420 H 34.03218245853684 153.38460459265232 235.20799471014922 H 0.0 **** 0.06
36421 C 190.5438967652965 78.12844645035707 92.36231649197913 C 0.0 **** -0.24
36422 H 189.96885863336058 78.19070394121684 91.43887363353679 H 0.0 **** 0.06
36423 H 189.89426533836416 78.34742604343583 93.21110948123021 H 0.0 **** 0.06
36424 H 191.35840028855148 78.85252323280548 92.33225991722708 H 0.0 **** 0.06
36425 H 190.9540159830869 77.12382474578098 92.46825530745497 H 0.0 **** 0.06
36426 C 198.33887670105412 111.54841411935772 128.01407550797478 C 0.0 **** -0.24
36427 H 197.4931608731227 111.71393157412359 128.68246932307332 H 0.0 **** 0.06
36428 H 198.05103700600404 111.8086700244323 126.9954554887563 H 0.0 **** 0.06
36429 H 198.63259732320049 110.4993327093552 128.05293374790827 H 0.0 **** 0.06
36430 H 199.17525413846323 112.17219190410796 128.32635199990625 H 0.0 **** 0.06
36431 C 4.595253747581722 41.43744312454449 16.32017492360532 C 0.0 **** -0.24
36432 H 4.029809604478245 41.89998131106408 17.129244709008702 H 0.0 **** 0.06
36433 H 5.209573397787395 42.19269043774635 15.829084870110051 H 0.0 **** 0.06
36434 H 3.9048165666321495 41.00356432270229 15.596779972691166 H 0.0 **** 0.06
36435 H 5.236322273624296 40.65484360497234 16.725370803624713 H 0.0 **** 0.06
36436 C 2.325688431158852 45.59936528963809 242.20061708188837 C 0.0 **** -0.24
36437 H 2.375541682917344 46.63925013277586 241.87695098812327 H 0.0 **** 0.06
36438 H 1.3228320730008534 45.21202064444739 242.0206148031989 H 0.0 **** 0.06
36439 H 2.5536601301719486 45.539349479651975 243.26505805299564 H 0.0 **** 0.06
36440 H 3.050698390374521 45.009218089664415 241.63925408025892 H 0.0 **** 0.06
36441 C 49.596322694139246 159.97071068804 191.56426325527195 C 0.0 **** -0.24
36442 H 50.0337873449471 160.5190245718546 190.72940689518026 H 0.0 **** 0.06
36443 H 50.24692136370413 159.13862612949822 191.83255642140904 H 0.0 **** 0.06
36444 H 48.61759961999962 159.58964903908728 191.2747089051736 H 0.0 **** 0.06
36445 H 49.48764358921609 160.6382786709664 192.41893887074485 H 0.0 **** 0.06
36446 C 103.57942072895884 106.60107519923713 218.05175844130105 C 0.0 **** -0.24
36447 H 104.32610251282563 107.39073909521395 217.96334564787574 H 0.0 **** 0.06
36448 H 104.07905141759883 105.63444133407108 218.11583429387417 H 0.0 **** 0.06
36449 H 102.92758300257992 106.61811808368802 217.17811395360914 H 0.0 **** 0.06
36450 H 102.98568792970732 106.76319638179206 218.9516465783285 H 0.0 **** 0.06
36451 C 48.98881818252062 41.66645252181628 103.45075728651682 C 0.0 **** -0.24
36452 H 49.21694375128631 40.99082977635159 102.62654299572262 H 0.0 **** 0.06
36453 H 48.75490602842227 42.655203402108214 103.05454347822811 H 0.0 **** 0.06
36454 H 49.85097966513811 41.73527091531918 104.11378833513663 H 0.0 **** 0.06
36455 H 48.131660527077244 41.28502544336047 104.00589214337228 H 0.0 **** 0.06
36456 C 38.25133253000983 47.75640695295735 20.10537541418921 C 0.0 **** -0.24
36457 H 38.645564739479155 47.29859172781593 21.01313020638554 H 0.0 **** 0.06
36458 H 38.01140027081321 46.97753593863527 19.38147416094867 H 0.0 **** 0.06
36459 H 38.999951934622416 48.42776417655065 19.68377128446471 H 0.0 **** 0.06
36460 H 37.350634910164004 48.31982663241021 20.345453764435433 H 0.0 **** 0.06
36461 C 128.58073446573428 71.78003129742461 142.43754656553307 C 0.0 **** -0.24
36462 H 128.6167145866478 70.81777555964533 141.92604397268218 H 0.0 **** 0.06
36463 H 129.28654906890452 72.46601371214697 141.96931751843346 H 0.0 **** 0.06
36464 H 128.8450060676778 71.64386868317405 143.48618178861733 H 0.0 **** 0.06
36465 H 127.57301493480557 72.190237513066 142.36712794041267 H 0.0 **** 0.06
36466 C 0.8418365942926158 184.56013309641656 178.78089747423883 C 0.0 **** -0.24
36467 H 0.9634913588761549 185.61020558291168 179.046401634047 H 0.0 **** 0.06
36468 H -0.004220249349927485 184.45276390672763 178.1007289203752 H 0.0 **** 0.06
36469 H 0.6588989420655622 183.97652786525413 179.68305728112472 H 0.0 **** 0.06
36470 H 1.7478337511432898 184.20061008402968 178.29353219067286 H 0.0 **** 0.06
36471 C 83.16004600959653 237.99707793455053 168.7693698346832 C 0.0 **** -0.24
36472 H 83.83357017045373 237.31191369774604 169.2834687895434 H 0.0 **** 0.06
36473 H 83.59507204995268 238.99759519621335 168.76335785009294 H 0.0 **** 0.06
36474 H 82.20075460244922 238.02130873184393 169.2875758226631 H 0.0 **** 0.06
36475 H 83.01050278899609 237.65949712986873 167.74445784746345 H 0.0 **** 0.06
36476 C 42.90313892564173 48.9201872199278 37.59569986119939 C 0.0 **** -0.24
36477 H 42.17014147242617 49.721426665893816 37.68577563963029 H 0.0 **** 0.06
36478 H 43.86320235146968 49.33796915997692 37.2919202662236 H 0.0 **** 0.06
36479 H 42.566530258806594 48.202288513079125 36.84785855471115 H 0.0 **** 0.06
36480 H 43.0134040492465 48.41848277669328 38.55761869012565 H 0.0 **** 0.06
36481 C 26.563556950454625 111.39498382225221 236.00209515528468 C 0.0 **** -0.24
36482 H 27.11970306411294 111.97304961782422 235.26495677415818 H 0.0 **** 0.06
36483 H 27.24880608090959 111.01663382521357 236.7605840986496 H 0.0 **** 0.06
36484 H 26.068206439070053 110.55882634701388 235.50969175793745 H 0.0 **** 0.06
36485 H 25.81560086657933 112.03361186584644 236.4739007348776 H 0.0 **** 0.06
36486 C 106.49844954843141 106.74657786379893 22.656722736861525 C 0.0 **** -0.24
36487 H 107.17619557577896 107.58545520611628 22.501086340149413 H 0.0 **** 0.06
36488 H 107.05946916940792 105.89456601442097 23.041807624617604 H 0.0 **** 0.06
36489 H 106.03253946059405 106.47649325077973 21.7095745693468 H 0.0 **** 0.06
36490 H 105.7285041171184 107.02907085815716 23.374359347758002 H 0.0 **** 0.06
36491 C 34.515365654749786 10.111211388911798 246.60392830154564 C 0.0 **** -0.24
36492 H 33.73421752307652 9.383624788949163 246.38405128314741 H 0.0 **** 0.06
36493 H 35.223618239250186 10.146134281733339 245.77522072241007 H 0.0 **** 0.06
36494 H 35.03617015961251 9.821339632610488 247.51555244795935 H 0.0 **** 0.06
36495 H 34.065870641014925 11.095560908711235 246.7391016563073 H 0.0 **** 0.06
36496 C 237.95385288351895 204.04008332000046 156.5871588030371 C 0.0 **** -0.24
36497 H 237.50235281572589 203.52487765840112 157.4354290379185 H 0.0 **** 0.06
36498 H 237.72690541414602 205.10489758263276 156.6476816087274 H 0.0 **** 0.06
36499 H 237.5505104144945 203.63437464479105 155.65968972723616 H 0.0 **** 0.06
36500 H 239.03369183406932 203.89710957055485 156.60791706468143 H 0.0 **** 0.06
36501 C 227.69571407118983 42.962734723020816 16.448086157382548 C 0.0 **** -0.24
36502 H 227.42155541382098 43.22617810737606 15.42692790551584 H 0.0 **** 0.06
36503 H 227.6766903812703 43.85681317838706 17.070830389415747 H 0.0 **** 0.06
36504 H 228.69762115497778 42.53450604502362 16.456020617078963 H 0.0 **** 0.06
36505 H 226.98571775877318 42.23282821776533 16.83848250769597 H 0.0 **** 0.06
36506 C 134.69497872405753 242.3779172304479 138.4465785571603 C 0.0 **** -0.24
36507 H 134.74991041157128 243.1814603763172 139.18113522151137 H 0.0 **** 0.06
36508 H 133.65287953148038 242.10066162920828 138.28860333601747 H 0.0 **** 0.06
36509 H 135.24934243462062 241.51371988498317 138.8129109144806 H 0.0 **** 0.06
36510 H 135.12878838165008 242.7156659664803 137.5056553209379 H 0.0 **** 0.06
36511 C 135.81428824267877 0.20957548134376225 77.03676166330817 C 0.0 **** -0.24
36512 H 135.45444221680697 0.2220541998055694 78.0659408001089 H 0.0 **** 0.06
36513 H 136.72300376117298 0.805997492442998 76.96256294815711 H 0.0 **** 0.06
36514 H 135.0508812197469 0.6275829544204896 76.38036083944345 H 0.0 **** 0.06
36515 H 136.02674843321154 -0.8166258217040081 76.73861218307556 H 0.0 **** 0.06
36516 C 67.73549384895489 146.11214951329015 5.807009663968387 C 0.0 **** -0.24
36517 H 68.42199896365153 145.29393116300804 5.586966399142483 H 0.0 **** 0.06
36518 H 67.43267731026961 146.06067961108673 6.852519374895962 H 0.0 **** 0.06
36519 H 66.85652298006914 146.02880691079116 5.168254792465049 H 0.0 **** 0.06
36520 H 68.23246501738811 147.063547899987 5.618180816592982 H 0.0 **** 0.06
36521 C 58.17748682076123 103.51083404033119 132.20091814852213 C 0.0 **** -0.24
36522 H 58.60592944908066 102.96902857294134 133.04370181706523 H 0.0 **** 0.06
36523 H 58.90660963674142 104.22816153839511 131.82265004239005 H 0.0 **** 0.06
36524 H 57.28294900492378 104.04041790410193 132.52683774662057 H 0.0 **** 0.06
36525 H 57.91669672689264 102.8060880589789 131.41141248246342 H 0.0 **** 0.06
36526 C 34.0891358278387 239.97230425468013 24.23323537996086 C 0.0 **** -0.24
36527 H 34.49742936532337 238.96197885230526 24.23447287177916 H 0.0 **** 0.06
36528 H 33.33123261371222 240.05579777309805 23.454856865828134 H 0.0 **** 0.06
36529 H 34.88908537327009 240.68666776738118 24.041334219483502 H 0.0 **** 0.06
36530 H 33.63974176969779 240.18316390979044 25.20350944069557 H 0.0 **** 0.06
36531 C 98.65296997767064 112.11514700624741 139.83366961161514 C 0.0 **** -0.24
36532 H 98.89852637417809 111.42812294422714 140.64376872151007 H 0.0 **** 0.06
36533 H 99.10773359653618 113.08646486243899 140.0317611458717 H 0.0 **** 0.06
36534 H 97.57110971336232 112.22674748628268 139.76802464615258 H 0.0 **** 0.06
36535 H 99.03584628752282 111.71962910967403 138.89378351348378 H 0.0 **** 0.06
36536 C 205.91440369971193 28.668929810389088 226.74204165323476 C 0.0 **** -0.24
36537 H 206.2660239234554 28.28237515137117 227.69866555203566 H 0.0 **** 0.06
36538 H 204.82522522740197 28.702735391625424 226.74207095092993 H 0.0 **** 0.06
36539 H 206.25783970563975 28.01669339500657 225.93918180506904 H 0.0 **** 0.06
36540 H 206.31033508628235 29.672626485696085 226.58928078017806 H 0.0 **** 0.06
36541 C 16.900110999433664 156.39839504765158 192.07369878765775 C 0.0 **** -0.24
36542 H 17.206020176425042 157.23903831119958 191.45236310497427 H 0.0 **** 0.06
36543 H 16.64808070086343 156.75713404677245 193.07214940638661 H 0.0 **** 0.06
36544 H 17.71705374570061 155.67977981995884 192.14061122773535 H 0.0 **** 0.06
36545 H 16.028551569504728 155.91678777079014 191.63053723858206 H 0.0 **** 0.06
36546 C 152.71320035260024 148.19854684116848 79.26407577166441 C 0.0 **** -0.24
36547 H 153.04730484292338 148.07896180021237 80.29471934587698 H 0.0 **** 0.06
36548 H 151.71471483817453 148.6375979679166 79.254782149423 H 0.0 **** 0.06
36549 H 152.687148298084 147.22548166718073 78.77482633122858 H 0.0 **** 0.06
36550 H 153.40305733809538 148.85446418519322 78.73251735333986 H 0.0 **** 0.06
36551 C 125.02729397269547 146.36814482364403 27.66426558786182 C 0.0 **** -0.24
36552 H 124.03020808162492 146.430972486691 28.1007114431562 H 0.0 **** 0.06
36553 H 125.75296697170793 146.80517397494043 28.35096916201016 H 0.0 **** 0.06
36554 H 125.04528322423496 146.91335571209794 26.720878584725398 H 0.0 **** 0.06
36555 H 125.27996362336768 145.3235119409229 27.48499554407985 H 0.0 **** 0.06
36556 C 246.19268681671687 127.16249796786465 160.94391523532977 C 0.0 **** -0.24
36557 H 246.5009341490167 128.182480077169 160.71558730855094 H 0.0 **** 0.06
36558 H 246.8579721189328 126.46092252693083 160.4393114805013 H 0.0 **** 0.06
36559 H 245.170598563005 127.00630888554124 160.59936170093184 H 0.0 **** 0.06
36560 H 246.24175513638863 127.00062290754795 162.02012772441154 H 0.0 **** 0.06
36561 C 190.04167117928444 104.23299492031188 106.54374125228352 C 0.0 **** -0.24
36562 H 188.98192198998134 104.48348512355824 106.5815152447829 H 0.0 **** 0.06
36563 H 190.44013273733046 104.18583527754922 107.55754691939904 H 0.0 **** 0.06
36564 H 190.57570716136348 104.99747792077054 105.97935407889725 H 0.0 **** 0.06
36565 H 190.16870076688784 103.26657784715346 106.05657178781453 H 0.0 **** 0.06
36566 C 30.612819028242924 148.97659360275628 164.85749753910721 C 0.0 **** -0.24
36567 H 30.21381531212394 148.2483618565045 165.56328442126372 H 0.0 **** 0.06
36568 H 31.70247273144068 148.94720687525847 164.88306712668316 H 0.0 **** 0.06
36569 H 30.268451675125633 149.97354274666148 165.1303749630322 H 0.0 **** 0.06
36570 H 30.265693829440693 148.73534214439547 163.85199845155768 H 0.0 **** 0.06
36571 C 220.17619379677126 60.473326909308895 63.42932387301303 C 0.0 **** -0.24
36572 H 219.83236359205685 61.45774805619027 63.10912333928704 H 0.0 **** 0.06
36573 H 220.047514857211 59.76090250185504 62.613275601087565 H 0.0 **** 0.06
36574 H 219.59402089449028 60.148601860699216 64.29188107481295 H 0.0 **** 0.06
36575 H 221.2303106349974 60.52828664286238 63.701091581738154 H 0.0 **** 0.06
36576 C 12.453704573828105 182.96242906141532 137.06335185053618 C 0.0 **** -0.24
36577 H 12.582362807951284 182.1534058160079 137.78209033697848 H 0.0 **** 0.06
36578 H 13.429457666256013 183.36976095042218 136.7965294102712 H 0.0 **** 0.06
36579 H 11.840677967969356 183.7471836983816 137.50676600325593 H 0.0 **** 0.06
36580 H 11.963074390804678 182.57898260639803 136.16855443675834 H 0.0 **** 0.06
36581 C 40.8884196091511 50.3226193961177 199.54978797862867 C 0.0 **** -0.24
36582 H 39.90878229507703 49.93322421266684 199.27232321510104 H 0.0 **** 0.06
36583 H 41.664914104598324 49.68682463445667 199.12612080417026 H 0.0 **** 0.06
36584 H 40.979838682299345 50.334779460188386 200.63547266873562 H 0.0 **** 0.06
36585 H 40.99830810259806 51.33691947322646 199.1650992095329 H 0.0 **** 0.06
36586 C 84.77541994328305 188.42121431115336 228.4506323011412 C 0.0 **** -0.24
36587 H 85.37944601427984 189.20149656419323 228.91333920309356 H 0.0 **** 0.06
36588 H 84.11899969428939 187.97842731585177 229.19977160934255 H 0.0 **** 0.06
36589 H 85.42896839776819 187.65265677453 228.03882009550762 H 0.0 **** 0.06
36590 H 84.17394167224498 188.85420737963693 227.65100709731644 H 0.0 **** 0.06
36591 C 78.99121365668833 49.785128607435155 201.53002588328124 C 0.0 **** -0.24
36592 H 79.30544581239386 49.244701434199186 202.42294759983892 H 0.0 **** 0.06
36593 H 78.00230517565203 49.44037151587125 201.2259319103416 H 0.0 **** 0.06
36594 H 79.70325492184591 49.60433797673224 200.72572212293124 H 0.0 **** 0.06
36595 H 78.95215536834019 50.852908174796 201.74812408552495 H 0.0 **** 0.06
36596 C 149.2558875758618 242.86818840450354 221.62176895014184 C 0.0 **** -0.24
36597 H 149.76214646852787 242.1425199286365 220.9842708894315 H 0.0 **** 0.06
36598 H 149.4391139594173 243.87405748559684 221.2433009094869 H 0.0 **** 0.06
36599 H 149.6379219346515 242.78682785911448 222.63942841202774 H 0.0 **** 0.06
36600 H 148.1840101957713 242.66814306541028 221.6188842250314 H 0.0 **** 0.06
36601 C 45.02405479825046 219.62139031729126 153.17003534775796 C 0.0 **** -0.24
36602 H 45.94083426689539 220.0934317657952 153.52465324797862 H 0.0 **** 0.06
36603 H 45.275020777999515 218.7439303078735 152.5742312054538 H 0.0 **** 0.06
36604 H 44.465303759862906 220.32852531041848 152.55759192986383 H 0.0 **** 0.06
36605 H 44.41684370917156 219.32056654619973 154.0238165383967 H 0.0 **** 0.06
36606 C 52.2036335692638 244.39744127960827 182.68555418644002 C 0.0 **** -0.24
36607 H 52.43914500748586 243.34589238037432 182.51862350135852 H 0.0 **** 0.06
36608 H 52.347345480001465 244.95355178576415 181.75978231948943 H 0.0 **** 0.06
36609 H 52.861671140945774 244.79822672719874 183.4567708559794 H 0.0 **** 0.06
36610 H 51.16742365201135 244.48988321731943 183.00845672499133 H 0.0 **** 0.06
36611 C 51.63384023115785 217.2078501078351 177.28887032201274 C 0.0 **** -0.24
36612 H 51.45135891585713 216.62406729878558 178.19068170101679 H 0.0 **** 0.06
36613 H 52.54634717255826 216.8542718673623 176.80634560521585 H 0.0 **** 0.06
36614 H 51.7465335039162 218.25843030058024 177.55288364487717 H 0.0 **** 0.06
36615 H 50.79292874204074 217.09224595622237 176.60535798664966 H 0.0 **** 0.06
36616 C 2.111872503330119 130.82371078639432 78.21947684198753 C 0.0 **** -0.24
36617 H 1.104393095903049 131.15689406647527 77.96848536106205 H 0.0 **** 0.06
36618 H 2.3865896653454683 131.20770696208515 79.20137499185839 H 0.0 **** 0.06
36619 H 2.8137088151979412 131.19689836772667 77.47269882721699 H 0.0 **** 0.06
36620 H 2.140246332904354 129.73450492660064 78.23308134878664 H 0.0 **** 0.06
36621 C 226.4827022753282 53.83234329938779 61.49785201555321 C 0.0 **** -0.24
36622 H 227.14835591800147 53.07308434307309 61.90885765799925 H 0.0 **** 0.06
36623 H 227.0292538630863 54.768920716154156 61.37940079716648 H 0.0 **** 0.06
36624 H 225.6438696099363 53.98468945265731 62.17640560234199 H 0.0 **** 0.06
36625 H 226.11106904581638 53.50255502168926 60.52814381463173 H 0.0 **** 0.06
36626 C 175.1732622871705 182.5326016379175 226.43869237440876 C 0.0 **** -0.24
36627 H 174.88603184523762 183.46073555919986 226.93299558911804 H 0.0 **** 0.06
36628 H 176.21951972286476 182.31537857137806 226.65531899591878 H 0.0 **** 0.06
36629 H 175.03810184922722 182.63778588847006 225.36268053011113 H 0.0 **** 0.06
36630 H 174.54952721872186 181.71769652346222 226.8059113643066 H 0.0 **** 0.06
36631 C 39.730396778503774 133.05231241023978 129.86588014656303 C 0.0 **** -0.24
36632 H 38.92289849233228 132.34698599865507 130.0632193056154 H 0.0 **** 0.06
36633 H 40.54095016773013 132.5392453898611 129.34725984656626 H 0.0 **** 0.06
36634 H 40.09891244703795 133.45651611828762 130.8087566678813 H 0.0 **** 0.06
36635 H 39.35794741899275 133.86616879615008 129.24322788941646 H 0.0 **** 0.06
36636 C 170.99745435649507 214.77742567679158 192.5769123548596 C 0.0 **** -0.24
36637 H 170.40441381233552 214.14737810185142 191.9144438426335 H 0.0 **** 0.06
36638 H 170.57225722656116 214.74944809131958 193.58090301157657 H 0.0 **** 0.06
36639 H 170.98867807967036 215.80252394007198 192.20715420148963 H 0.0 **** 0.06
36640 H 172.02268318729463 214.40945544511257 192.60656560206883 H 0.0 **** 0.06
36641 C 4.456534727555635 243.32696070748986 204.6919761160519 C 0.0 **** -0.24
36642 H 4.5991692383348095 242.90788460195677 203.69561112815876 H 0.0 **** 0.06
36643 H 5.132962840278097 244.17080419357916 204.831305787985 H 0.0 **** 0.06
36644 H 4.667976795347002 242.56364436745417 205.44018930565608 H 0.0 **** 0.06
36645 H 3.425989787811588 243.6661933307303 204.79844642558896 H 0.0 **** 0.06
36646 C 90.38921220801876 160.5578216643264 56.395406782522144 C 0.0 **** -0.24
36647 H 90.13380000800274 159.83255528352603 57.16835882492171 H 0.0 **** 0.06
36648 H 91.46274415590653 160.52356720196187 56.206657294843495 H 0.0 **** 0.06
36649 H 90.11098571239748 161.55689412685396 56.72919382507169 H 0.0 **** 0.06
36650 H 89.85101548020236 160.31718070554092 55.47880830095178 H 0.0 **** 0.06
36651 C 177.77603261502577 100.6458725962064 222.96497154847185 C 0.0 **** -0.24
36652 H 176.82805045466216 100.68724465225668 222.42811146380058 H 0.0 **** 0.06
36653 H 177.84585576938267 101.49680763741316 223.6426018697116 H 0.0 **** 0.06
36654 H 178.5987324831824 100.67913238372006 222.251167460334 H 0.0 **** 0.06
36655 H 177.82823191793557 99.71992037087702 223.5375309572849 H 0.0 **** 0.06
36656 C 115.0234641339755 53.52482913795865 163.991201981537 C 0.0 **** -0.24
36657 H 115.02537691727463 53.02163850083025 164.95776087088288 H 0.0 **** 0.06
36658 H 114.59014439434682 52.86580155736206 163.23907551800187 H 0.0 **** 0.06
36659 H 116.04726795215072 53.77449469636045 163.7104433095993 H 0.0 **** 0.06
36660 H 114.43267163332206 54.43849439773442 164.05900748552602 H 0.0 **** 0.06
36661 C 108.37665148096897 13.038914396726653 61.88987136796732 C 0.0 **** -0.24
36662 H 108.19127678819567 11.967122678663628 61.83729491276614 H 0.0 **** 0.06
36663 H 109.45081605929056 13.223725229327073 61.861288318917985 H 0.0 **** 0.06
36664 H 107.96414639369749 13.433970761697282 62.817981052111605 H 0.0 **** 0.06
36665 H 107.9003871668775 13.532569065914146 61.042842479098624 H 0.0 **** 0.06
36666 C 138.57479668393646 137.80952860896687 185.18876396551883 C 0.0 **** -0.24
36667 H 137.56415453957962 137.98922396742586 184.82145264232054 H 0.0 **** 0.06
36668 H 139.28235887379233 137.90617563500058 184.3642418702189 H 0.0 **** 0.06
36669 H 138.6363491090202 136.8049078171297 185.6051074727182 H 0.0 **** 0.06
36670 H 138.81599874666045 138.53918686280485 185.96160998144845 H 0.0 **** 0.06
36671 C 121.3739743945348 204.90045690207964 93.4421152439771 C 0.0 **** -0.24
36672 H 120.57495063524729 204.38951582851627 92.90483522280928 H 0.0 **** 0.06
36673 H 120.95506832245681 205.4323398644039 94.29528097723707 H 0.0 **** 0.06
36674 H 121.86326852546853 205.61048040005653 92.77421220479741 H 0.0 **** 0.06
36675 H 122.10253985006227 204.16843236875337 93.7905446175416 H 0.0 **** 0.06
36676 C 173.47464467485443 83.97186777130361 198.57930539862681 C 0.0 **** -0.24
36677 H 174.20618458935303 83.34561971984638 199.09018434990017 H 0.0 **** 0.06
36678 H 173.7543160247192 84.07601495399473 197.5307798276369 H 0.0 **** 0.06
36679 H 173.44735233912115 84.9553232016537 199.04870939904131 H 0.0 **** 0.06
36680 H 172.4899415176171 83.50923071955793 198.64840838627416 H 0.0 **** 0.06
36681 C 91.97912046679656 205.62431113249585 183.47764607767456 C 0.0 **** -0.24
36682 H 92.88871564659209 205.07359221049512 183.715591110854 H 0.0 **** 0.06
36683 H 91.97973017742893 206.57393262766402 184.01337102561223 H 0.0 **** 0.06
36684 H 91.1112230428225 205.0385475989334 183.77754055198886 H 0.0 **** 0.06
36685 H 91.93873692729946 205.81231158331803 182.40409236089215 H 0.0 **** 0.06
36686 C 214.58609440138812 37.71457164974156 77.07652620462045 C 0.0 **** -0.24
36687 H 214.25891547681456 38.74358646313617 77.22296399676284 H 0.0 **** 0.06
36688 H 215.5790378239403 37.58423534900297 77.50594601064714 H 0.0 **** 0.06
36689 H 214.61922876765396 37.492815326906836 76.00936697290004 H 0.0 **** 0.06
36690 H 213.88594401720712 37.03728267487074 77.5663115250363 H 0.0 **** 0.06
36691 C 94.82182744842353 239.04718351693643 218.09366413598525 C 0.0 **** -0.24
36692 H 94.00915695906019 239.68749767398293 218.43548575177917 H 0.0 **** 0.06
36693 H 94.70997534659412 238.8554300637383 217.0267558529518 H 0.0 **** 0.06
36694 H 94.79433384888284 238.1034666424722 218.63776718238574 H 0.0 **** 0.06
36695 H 95.77526061079644 239.54403594329654 218.27667630198312 H 0.0 **** 0.06
36696 C 57.503398129744 32.84207647845298 80.81650239894239 C 0.0 **** -0.24
36697 H 58.13921824749886 31.95716500268358 80.80685769053528 H 0.0 **** 0.06
36698 H 58.12449212597957 33.73642779709118 80.76913644665359 H 0.0 **** 0.06
36699 H 56.91536046280916 32.85629069436615 81.73424377248907 H 0.0 **** 0.06
36700 H 56.83401407531025 32.817955625208555 79.95736054319386 H 0.0 **** 0.06
36701 C 218.98476811098993 238.63668074108602 18.306295398331457 C 0.0 **** -0.24
36702 H 219.21139665020428 237.60667792199632 18.028723283888013 H 0.0 **** 0.06
36703 H 218.03178372511795 238.6682225137245 18.83570115857978 H 0.0 **** 0.06
36704 H 218.9217837054594 239.24927320864177 17.406860017908656 H 0.0 **** 0.06
36705 H 219.7733715365701 239.01959486154206 18.95258245846796 H 0.0 **** 0.06
36706 C 168.6906562419709 123.197349661148 247.0637752426477 C 0.0 **** -0.24
36707 H 169.39807961757955 122.88999410768722 246.29335567906622 H 0.0 **** 0.06
36708 H 169.2136695751719 123.30660243918285 248.01425378553716 H 0.0 **** 0.06
36709 H 167.9114275622437 122.4411281770553 247.1627111212925 H 0.0 **** 0.06
36710 H 168.24050418876786 124.14947152300198 246.78496590529596 H 0.0 **** 0.06
36711 C 14.396045065173098 230.4586931277385 83.47655821764096 C 0.0 **** -0.24
36712 H 15.103423618220347 231.17454258928018 83.89517582332914 H 0.0 **** 0.06
36713 H 14.861720231678902 229.47415665392617 83.42953542790809 H 0.0 **** 0.06
36714 H 14.111927705940545 230.77403601201354 82.47280837010194 H 0.0 **** 0.06
36715 H 13.509468593153187 230.41255899601344 84.10831478628458 H 0.0 **** 0.06
36716 C 126.54849288268812 146.17277357939574 131.6967425977849 C 0.0 **** -0.24
36717 H 126.9511130022484 146.92199179917515 131.01485281895685 H 0.0 **** 0.06
36718 H 125.46747210518916 146.29263886066346 131.77224072740282 H 0.0 **** 0.06
36719 H 126.99830579335611 146.30029075235086 132.6817518831163 H 0.0 **** 0.06
36720 H 126.77796767396077 145.17696931421122 131.31888582000025 H 0.0 **** 0.06
36721 C 168.4889451344507 22.833163439506592 248.6361803378154 C 0.0 **** -0.24
36722 H 169.44886500123818 23.24148342102373 248.3180778019189 H 0.0 **** 0.06
36723 H 167.87895345571218 22.61696992544134 247.7597289275081 H 0.0 **** 0.06
36724 H 167.97669481592985 23.559453500235207 249.26643101674014 H 0.0 **** 0.06
36725 H 168.65457987517607 21.914808060270417 249.20033200948734 H 0.0 **** 0.06
36726 C 215.02076353209654 130.3535501347303 51.253909312029805 C 0.0 **** -0.24
36727 H 215.81688759897634 130.4846210125744 51.986906219167906 H 0.0 **** 0.06
36728 H 214.89569740139686 131.27589487574343 50.686067593258784 H 0.0 **** 0.06
36729 H 214.0898956223176 130.11531900758436 51.7685222088644 H 0.0 **** 0.06
36730 H 215.2805402378763 129.5406800612445 50.57651661493165 H 0.0 **** 0.06
36731 C 45.51671003669874 166.76829340008572 120.22558893205442 C 0.0 **** -0.24
36732 H 44.58077189206263 166.23103908218752 120.38154458141469 H 0.0 **** 0.06
36733 H 45.34657334208033 167.83765720894496 120.3545041299833 H 0.0 **** 0.06
36734 H 45.88126022734093 166.57618842896545 119.21672105027551 H 0.0 **** 0.06
36735 H 46.255470887068356 166.42690687760398 120.95025796754715 H 0.0 **** 0.06
36736 C 24.998819404382033 220.97717936393818 229.64226085460328 C 0.0 **** -0.24
36737 H 25.73537404981508 220.17760584160098 229.55662782328093 H 0.0 **** 0.06
36738 H 25.367112007901454 221.86530457912522 229.12813758583283 H 0.0 **** 0.06
36739 H 24.834513466991467 221.2074116677475 230.69419012943115 H 0.0 **** 0.06
36740 H 24.06090313992931 220.65713895473695 229.1888506844214 H 0.0 **** 0.06
36741 C 97.85492370798704 6.393258694873424 67.7235051018315 C 0.0 **** -0.24
36742 H 98.67641042252583 6.646337033302004 68.3941089389352 H 0.0 **** 0.06
36743 H 98.17178839835378 6.536678780577645 66.69058302630873 H 0.0 **** 0.06
36744 H 97.00126527259377 7.037746348596016 67.93549217223918 H 0.0 **** 0.06
36745 H 97.57050253933497 5.351573557347933 67.87594280457023 H 0.0 **** 0.06
36746 C 168.63575104695263 70.87375711847068 91.3703275310082 C 0.0 **** -0.24
36747 H 167.56695893138337 71.08155018631112 91.3238300110207 H 0.0 **** 0.06
36748 H 168.9995064694917 71.06516170645548 92.37991846130745 H 0.0 **** 0.06
36749 H 169.16182498875042 71.51693535826021 90.66515342145709 H 0.0 **** 0.06
36750 H 168.8136252490136 69.82982895661411 91.11122265911794 H 0.0 **** 0.06
36751 C 230.7315934451284 40.4952916414579 25.27255305402592 C 0.0 **** -0.24
36752 H 230.588474674763 41.24005933997964 24.490047043968815 H 0.0 **** 0.06
36753 H 230.43041896246206 39.5159067032894 24.901936493811988 H 0.0 **** 0.06
36754 H 230.1258598968896 40.75851788543579 26.13951520969708 H 0.0 **** 0.06
36755 H 231.78332223849876 40.46765357389117 25.55911414760142 H 0.0 **** 0.06
36756 C 118.01799862864996 238.28978074044903 200.75981858879183 C 0.0 **** -0.24
36757 H 117.10557137846462 238.88536772064091 200.80411578935943 H 0.0 **** 0.06
36758 H 118.87473940701315 238.92054466677243 200.9982083595162 H 0.0 **** 0.06
36759 H 118.1353564699088 237.8806538291272 199.7566018267198 H 0.0 **** 0.06
36760 H 117.95495223513768 237.4742795298148 201.47997238643126 H 0.0 **** 0.06
36761 C 147.50368041554205 100.13627324848508 119.08654241517755 C 0.0 **** -0.24
36762 H 148.4881522737538 99.75684731430431 118.8137353684335 H 0.0 **** 0.06
36763 H 147.2025388241465 100.90783041919664 118.3774501432647 H 0.0 **** 0.06
36764 H 147.54340338230153 100.56069335061008 120.09024816983711 H 0.0 **** 0.06
36765 H 146.78134725178822 99.32090890192083 119.06446659338928 H 0.0 **** 0.06
36766 C 104.34464534594312 89.14816392588662 5.437200986119507 C 0.0 **** -0.24
36767 H 103.78896394946239 88.35405825360633 5.936732710684822 H 0.0 **** 0.06
36768 H 105.38852153723516 89.11288735493005 5.749634393544085 H 0.0 **** 0.06
36769 H 103.91750082094896 90.11390634713857 5.705194807340916 H 0.0 **** 0.06
36770 H 104.2838817236831 89.0096834196207 4.3578917174280605 H 0.0 **** 0.06
36771 C 184.9468169898269 169.36755965211506 39.98230908839183 C 0.0 **** -0.24
36772 H 184.98905524151152 168.87796497708007 39.008723157137354 H 0.0 **** 0.06
36773 H 185.938179833647 169.36229749935129 40.43514083261067 H 0.0 **** 0.06
36774 H 184.2492725428062 168.83332145972278 40.62630664563011 H 0.0 **** 0.06
36775 H 184.610410858192 170.39653576719806 39.85608850292317 H 0.0 **** 0.06
36776 C 227.50496148183083 50.323157426717245 220.80224781588367 C 0.0 **** -0.24
36777 H 227.15107979463494 50.32948204472996 221.83379293460038 H 0.0 **** 0.06
36778 H 227.4654618172712 49.30546711604926 220.4118649368806 H 0.0 **** 0.06
36779 H 228.53241372965402 50.686002196573796 220.76880945919999 H 0.0 **** 0.06
36780 H 226.87054890553884 50.96982437358858 220.19725269356078 H 0.0 **** 0.06
36781 C 6.614113481830472 209.6539070456044 109.84668231912468 C 0.0 **** -0.24
36782 H 5.859524161122948 209.43023069366885 109.09284652013596 H 0.0 **** 0.06
36783 H 6.639804712820961 210.72872572728508 110.02742062630779 H 0.0 **** 0.06
36784 H 7.589660489088985 209.32054055933713 109.49486791226931 H 0.0 **** 0.06
36785 H 6.364919103156751 209.13616966471932 110.773470183038 H 0.0 **** 0.06
36786 C 115.89715973515695 242.86147072067754 22.835297649742273 C 0.0 **** -0.24
36787 H 115.87266776533065 243.82144342830617 23.35050450920889 H 0.0 **** 0.06
36788 H 115.82779264812976 242.0546601557218 23.56584367958058 H 0.0 **** 0.06
36789 H 116.83076065424703 242.77131736636755 22.280865276770754 H 0.0 **** 0.06
36790 H 115.0564152841128 242.79938724725415 22.143604806374384 H 0.0 **** 0.06
36791 C 188.38432747025814 157.24062214149677 118.89455488906151 C 0.0 **** -0.24
36792 H 188.7416615712039 157.00757906839027 119.89758322118516 H 0.0 **** 0.06
36793 H 188.96544814106167 156.68051353156199 118.16215631079487 H 0.0 **** 0.06
36794 H 188.49740707770303 158.30925444665382 118.70801110866176 H 0.0 **** 0.06
36795 H 187.33232924038674 156.96702645447124 118.81095047681976 H 0.0 **** 0.06
36796 C 80.22122505344097 248.48059978183605 69.34924950605156 C 0.0 **** -0.24
36797 H 80.79575540324359 248.2281626974595 70.2401933649198 H 0.0 **** 0.06
36798 H 79.1916394249522 248.70215883391722 69.63216751461866 H 0.0 **** 0.06
36799 H 80.23531417980595 247.63899665020244 68.65728185744834 H 0.0 **** 0.06
36800 H 80.66151132390237 249.35401314279648 68.8686471070844 H 0.0 **** 0.06
36801 C 66.2922641983071 233.6275378947949 178.67397538403162 C 0.0 **** -0.24
36802 H 65.36842385356701 233.7845908855183 179.2318418168347 H 0.0 **** 0.06
36803 H 67.03649110090325 233.17069377754478 179.32587824008652 H 0.0 **** 0.06
36804 H 66.66475273810235 234.58574419574197 178.31187244169303 H 0.0 **** 0.06
36805 H 66.09747472399252 232.96983502950508 177.82721888716014 H 0.0 **** 0.06
36806 C 187.60852597208094 220.78706481903 20.33296444502689 C 0.0 **** -0.24
36807 H 188.618252139634 220.42556271055307 20.139672292540908 H 0.0 **** 0.06
36808 H 186.9600291790788 220.51517223092358 19.499813255843463 H 0.0 **** 0.06
36809 H 187.6260105390913 221.87159566907286 20.44221506353567 H 0.0 **** 0.06
36810 H 187.2304425924192 220.33618303101485 21.25089044824969 H 0.0 **** 0.06
36811 C 223.01777972250773 214.4286561304479 116.1489597268608 C 0.0 **** -0.24
36812 H 223.2168518461723 214.6839752643367 117.18937742690144 H 0.0 **** 0.06
36813 H 223.04858894847231 213.3450920666839 116.02853840576077 H 0.0 **** 0.06
36814 H 223.77424899927615 214.8870184436175 115.51127500789403 H 0.0 **** 0.06
36815 H 222.03162535865093 214.79788030601375 115.86592146794791 H 0.0 **** 0.06
36816 C 213.93006438743691 218.78965399364316 203.1923172526 C 0.0 **** -0.24
36817 H 213.18675000685144 219.17380966184191 202.49269254069003 H 0.0 **** 0.06
36818 H 214.8996132107702 219.23764285257542 202.97269339509367 H 0.0 **** 0.06
36819 H 213.9982243544684 217.70669636647597 203.09066312069274 H 0.0 **** 0.06
36820 H 213.6350902881875 219.0413117034153 204.21099494764525 H 0.0 **** 0.06
36821 C 132.48160152914434 64.68786646716907 169.4968754278378 C 0.0 **** -0.24
36822 H 132.61532770568627 63.677165254965246 169.11123059305365 H 0.0 **** 0.06
36823 H 131.4175356689181 64.91696588782202 169.55371615408498 H 0.0 **** 0.06
36824 H 132.97260672338703 65.39780795571946 168.83196149170882 H 0.0 **** 0.06
36825 H 132.92253969349596 64.75723055720582 170.49206171300924 H 0.0 **** 0.06
36826 C 216.81303620602117 129.11243011235874 188.07946904823183 C 0.0 **** -0.24
36827 H 216.73226164682166 128.06627986185322 187.78712904652284 H 0.0 **** 0.06
36828 H 216.00545190911618 129.36016022745088 188.76863301020722 H 0.0 **** 0.06
36829 H 216.7408811988901 129.74373375059156 187.19338668860254 H 0.0 **** 0.06
36830 H 217.7731311012314 129.28090089553243 188.56773225693195 H 0.0 **** 0.06
36831 C 235.08754284802632 4.099192672277326 120.78267471187343 C 0.0 **** -0.24
36832 H 236.06350044452446 3.836003092588129 120.37568628794946 H 0.0 **** 0.06
36833 H 235.00510637067967 5.18315271310891 120.85751065885114 H 0.0 **** 0.06
36834 H 234.97659585478527 3.656978328530812 121.77341172076265 H 0.0 **** 0.06
36835 H 234.30535730478965 3.7191985114158967 120.12575783792425 H 0.0 **** 0.06
36836 C 52.32923231280648 88.85699666417563 103.56779794181918 C 0.0 **** -0.24
36837 H 52.11490530788437 88.28339382176648 104.46895290785693 H 0.0 **** 0.06
36838 H 51.7140046027865 88.4866343057258 102.74659992904643 H 0.0 **** 0.06
36839 H 53.38286490112044 88.74861643667236 103.30979664804192 H 0.0 **** 0.06
36840 H 52.10545286892001 89.90908033149367 103.74448491706283 H 0.0 **** 0.06
36841 C 220.71698778007874 177.5669440449214 41.00595348484717 C 0.0 **** -0.24
36842 H 221.49308174853797 178.32602957347012 41.103692327470796 H 0.0 **** 0.06
36843 H 219.78385996863068 178.0400747588243 40.699343979352165 H 0.0 **** 0.06
36844 H 220.57442855081854 177.06819059636865 41.96452869380305 H 0.0 **** 0.06
36845 H 221.01751445666218 176.8355015660681 40.25603270104472 H 0.0 **** 0.06
36846 C 105.24147146677961 202.32042908789714 202.02326485011525 C 0.0 **** -0.24
36847 H 105.61268687224313 202.71177214083005 201.07562815014802 H 0.0 **** 0.06
36848 H 105.50243210725984 203.0076876689845 202.82795967083513 H 0.0 **** 0.06
36849 H 105.6911260567918 201.34698413967863 202.21610737789115 H 0.0 **** 0.06
36850 H 104.15698251157318 202.21523693338162 201.97165184119598 H 0.0 **** 0.06
36851 C 137.59835032452023 56.512937771758516 131.02980510695292 C 0.0 **** -0.24
36852 H 136.7794441556218 56.26303260535343 131.7030811621003 H 0.0 **** 0.06
36853 H 137.98080394310756 55.60134840585485 130.5694751850012 H 0.0 **** 0.06
36854 H 138.39493474243645 56.9989091177423 131.5922085870766 H 0.0 **** 0.06
36855 H 137.23748330144784 57.18878374933027 130.25385937117332 H 0.0 **** 0.06
36856 C 191.8376586761213 62.49503219847614 30.199804210207077 C 0.0 **** -0.24
36857 H 191.54095511369542 61.47043766397641 29.975078583783784 H 0.0 **** 0.06
36858 H 192.34826918121144 62.52112701370089 31.162597305535613 H 0.0 **** 0.06
36859 H 190.95249761026713 63.129029805446436 30.239972368177874 H 0.0 **** 0.06
36860 H 192.50927003328735 62.85655587196396 29.421531519356847 H 0.0 **** 0.06
36861 C 77.19405262316965 80.7710604962146 237.57017072698704 C 0.0 **** -0.24
36862 H 76.82569315637687 80.96911151625241 236.56390403284908 H 0.0 **** 0.06
36863 H 76.53552035099551 80.05769288381904 238.06479832073478 H 0.0 **** 0.06
36864 H 77.21588992147937 81.70058715430042 238.1377126890813 H 0.0 **** 0.06
36865 H 78.20068352687335 80.35683163639663 237.51239317344937 H 0.0 **** 0.06
36866 C 175.74768670159784 169.89648519217556 207.61318072136697 C 0.0 **** -0.24
36867 H 175.46149913878585 168.9069943173495 207.97123388396184 H 0.0 **** 0.06
36868 H 176.62346432282163 169.80967576563955 206.9697809588464 H 0.0 **** 0.06
36869 H 175.98283925172097 170.5360683922808 208.46357014495428 H 0.0 **** 0.06
36870 H 174.92294025056174 170.33008076136824 207.04864398088338 H 0.0 **** 0.06
36871 C 124.8316774179053 167.54369126035957 50.96724498146429 C 0.0 **** -0.24
36872 H 125.34277001096385 166.58260935470366 51.030185495662096 H 0.0 **** 0.06
36873 H 125.47618343891463 168.26496278560256 50.46364101418234 H 0.0 **** 0.06
36874 H 124.60300893394577 167.89923320069866 51.971238113171324 H 0.0 **** 0.06
36875 H 123.90709652704075 167.42569132517684 50.402759592877175 H 0.0 **** 0.06
36876 C 228.37642477912064 178.9785663256389 64.08415128756297 C 0.0 **** -0.24
36877 H 228.5257871020358 178.37583065107938 63.188641842247705 H 0.0 **** 0.06
36878 H 227.75892685597165 178.42840024843895 64.79397814596405 H 0.0 **** 0.06
36879 H 227.87808321220564 179.90991138889223 63.81498103317679 H 0.0 **** 0.06
36880 H 229.34199287505425 179.2010145482858 64.53838868115923 H 0.0 **** 0.06
36881 C 2.514127103646473 20.089677395132952 29.64011044557347 C 0.0 **** -0.24
36882 H 3.1411570544340606 20.881578783054266 30.051161796051076 H 0.0 **** 0.06
36883 H 1.5779176053010673 20.517559281024006 29.28006121735848 H 0.0 **** 0.06
36884 H 2.302348966879137 19.35507839264031 30.41724293007951 H 0.0 **** 0.06
36885 H 3.034976000851529 19.605209676732073 28.81431566266616 H 0.0 **** 0.06
36886 C 162.97988557248814 152.20249965927192 52.8382641493794 C 0.0 **** -0.24
36887 H 163.3364812121376 151.3884627620438 52.20626726661018 H 0.0 **** 0.06
36888 H 162.7941349741498 153.08400143104598 52.22373268452816 H 0.0 **** 0.06
36889 H 163.73313636762958 152.4352253174062 53.59062946745286 H 0.0 **** 0.06
36890 H 162.05511157168846 151.9009288218454 53.330053378213265 H 0.0 **** 0.06
36891 C 170.57967816304745 86.97321581655757 226.50116698148025 C 0.0 **** -0.24
36892 H 171.4038231364357 86.32550906036656 226.80156937565584 H 0.0 **** 0.06
36893 H 170.85440875913568 87.51461392499448 225.59568989151106 H 0.0 **** 0.06
36894 H 170.36681064412787 87.68407546251655 227.29987378419818 H 0.0 **** 0.06
36895 H 169.69355715964835 86.36715958419384 226.3088469533387 H 0.0 **** 0.06
36896 C 26.370335567716182 242.82997332469787 51.894722633431556 C 0.0 **** -0.24
36897 H 26.91773376990713 243.453011367044 52.6022071756974 H 0.0 **** 0.06
36898 H 26.5835261905913 241.78020932545144 52.09434944900801 H 0.0 **** 0.06
36899 H 26.679696785480218 243.077865922824 50.87910731702321 H 0.0 **** 0.06
36900 H 25.301173467942903 243.01107817797612 52.003695118286075 H 0.0 **** 0.06
36901 C 232.70723009545353 106.8001011984696 198.8477805943969 C 0.0 **** -0.24
36902 H 233.01204431870568 106.0636172403538 199.59191448495332 H 0.0 **** 0.06
36903 H 233.36499637204594 107.66712222157321 198.90402678985942 H 0.0 **** 0.06
36904 H 231.68074330204024 107.10904749777745 199.04325337676778 H 0.0 **** 0.06
36905 H 232.77017379240198 106.35856059705498 197.85361333007762 H 0.0 **** 0.06
36906 C 51.3773071313925 53.685607336781686 197.74874450125574 C 0.0 **** -0.24
36907 H 50.984950464883426 54.36556904311573 196.99342478052094 H 0.0 **** 0.06
36908 H 50.54921822574401 53.190337194549585 198.25613668013955 H 0.0 **** 0.06
36909 H 51.96484609441036 54.24818577492627 198.4738107259926 H 0.0 **** 0.06
36910 H 52.00887121737267 52.9374607992131 197.27004717598516 H 0.0 **** 0.06
36911 C 65.25873628983388 147.10459672098366 55.57919095746641 C 0.0 **** -0.24
36912 H 64.5552394083137 146.492929862021 55.013624543815354 H 0.0 **** 0.06
36913 H 65.58313181739393 147.94567306605578 54.96681387748836 H 0.0 **** 0.06
36914 H 66.12331551185568 146.50064221855706 55.85544500991958 H 0.0 **** 0.06
36915 H 64.7727962003107 147.47618165590802 56.4807243310091 H 0.0 **** 0.06
36916 C 66.59744510922934 175.6815781179226 128.16033513064465 C 0.0 **** -0.24
36917 H 66.9225096247551 175.30867002861362 127.18930208169562 H 0.0 **** 0.06
36918 H 66.80883225718244 176.74966091747865 128.22792355439205 H 0.0 **** 0.06
36919 H 67.13262684294423 175.15460432718982 128.95044443173302 H 0.0 **** 0.06
36920 H 65.52643292052142 175.515740546556 128.27383999524065 H 0.0 **** 0.06
36921 C 23.907037402588287 241.5684352497984 42.17945888211126 C 0.0 **** -0.24
36922 H 23.584308569311972 242.6085214736029 42.1302621472409 H 0.0 **** 0.06
36923 H 24.19652152881511 241.3269505706416 43.20306509389923 H 0.0 **** 0.06
36924 H 24.758595447820184 241.42039313905372 41.51559293554226 H 0.0 **** 0.06
36925 H 23.087888976440013 240.91911173608065 41.87058123833518 H 0.0 **** 0.06
36926 C 2.952285832545911 12.364674679970307 136.22001661272967 C 0.0 **** -0.24
36927 H 3.388268868451135 12.65152240010363 137.17743332228872 H 0.0 **** 0.06
36928 H 2.490536499204893 11.380761026476392 136.31121452615943 H 0.0 **** 0.06
36929 H 3.7336654869282455 12.330938742687266 135.46077140087425 H 0.0 **** 0.06
36930 H 2.1970641435558775 13.09612003524009 135.93130487437614 H 0.0 **** 0.06
36931 C 96.01384396291144 11.304431629253116 65.98322597963795 C 0.0 **** -0.24
36932 H 95.09158123793264 11.609357378149099 66.47826671311824 H 0.0 **** 0.06
36933 H 96.16964143185001 10.23562003867491 66.1324288926944 H 0.0 **** 0.06
36934 H 96.85320331897367 11.856636579455625 66.40640222850308 H 0.0 **** 0.06
36935 H 95.94052141368519 11.51565046091045 64.91707216143578 H 0.0 **** 0.06
36936 C 151.06015233508103 239.80290067333704 91.35327800111074 C 0.0 **** -0.24
36937 H 151.1632613153551 240.59076899407603 90.60691574352256 H 0.0 **** 0.06
36938 H 151.7918550633294 239.01933041736663 91.15935448646755 H 0.0 **** 0.06
36939 H 150.05546352302363 239.38279941078576 91.3006292159589 H 0.0 **** 0.06
36940 H 151.22706857062448 240.22092891797126 92.3467441255836 H 0.0 **** 0.06
36941 C 123.47421948344058 58.45413858168206 235.20805513282727 C 0.0 **** -0.24
36942 H 124.39610874035603 58.05056892226477 234.7902545951606 H 0.0 **** 0.06
36943 H 123.41064833155409 59.52003647805461 234.98632790336598 H 0.0 **** 0.06
36944 H 123.47009739796528 58.3073037984216 236.2884051363142 H 0.0 **** 0.06
36945 H 122.62019705981004 57.93917774142679 234.7680612666253 H 0.0 **** 0.06
36946 C 213.2845662575776 8.208404592666596 126.89951194727948 C 0.0 **** -0.24
36947 H 214.12619388005712 7.517364706594833 126.94429350386247 H 0.0 **** 0.06
36948 H 213.65786929596067 9.230528615389872 126.8329995665433 H 0.0 **** 0.06
36949 H 212.67893316208375 8.10124133548237 127.8001418222741 H 0.0 **** 0.06
36950 H 212.67644766592747 7.984857900240954 126.02352324047325 H 0.0 **** 0.06
36951 C 199.66696638438677 72.4651755149597 105.5294351106896 C 0.0 **** -0.24
36952 H 199.35755250239848 72.6505215795811 106.55704176460961 H 0.0 **** 0.06
36953 H 200.73216117471912 72.23354028488092 105.50639699164603 H 0.0 **** 0.06
36954 H 199.47543805571996 73.35307264421164 104.92611416345534 H 0.0 **** 0.06
36955 H 199.1033960661063 71.62393239693586 105.12528898986889 H 0.0 **** 0.06
36956 C 104.64847823898756 245.6548835177881 195.17205459129082 C 0.0 **** -0.24
36957 H 103.99674378222491 245.30187609805955 194.37314375525074 H 0.0 **** 0.06
36958 H 104.10158756363396 245.65273512663867 196.11489791981617 H 0.0 **** 0.06
36959 H 104.98256151772426 246.6674273292819 194.9476488135559 H 0.0 **** 0.06
36960 H 105.5138817334161 244.99639980933483 195.25228909104462 H 0.0 **** 0.06
36961 C 51.03792873326216 138.4333861523761 178.39451571532533 C 0.0 **** -0.24
36962 H 52.07933181951506 138.4322684909455 178.0738368657493 H 0.0 **** 0.06
36963 H 50.79692287679417 137.47087210874227 178.84794871108147 H 0.0 **** 0.06
36964 H 50.392794807352885 138.60017165549564 177.53240703638258 H 0.0 **** 0.06
36965 H 50.88335808432559 139.22790160418907 179.1235737832779 H 0.0 **** 0.06
36966 C 63.24431395574928 36.896537258870765 27.0091688850342 C 0.0 **** -0.24
36967 H 62.33908343923011 36.297386472891276 27.102258126153913 H 0.0 **** 0.06
36968 H 63.376643238405705 37.498155465065125 27.90843139633668 H 0.0 **** 0.06
36969 H 63.15847401496373 37.55203985429914 26.142270721750123 H 0.0 **** 0.06
36970 H 64.10381631411528 36.23762737428348 26.88183452626521 H 0.0 **** 0.06
36971 C 239.93335651776363 96.43969391004012 76.1802659320715 C 0.0 **** -0.24
36972 H 239.19042718624473 96.55598956895585 76.9688696918607 H 0.0 **** 0.06
36973 H 240.1077230750149 95.37821740850174 75.99927552655848 H 0.0 **** 0.06
36974 H 240.86521075913674 96.91378474369625 76.48673960629273 H 0.0 **** 0.06
36975 H 239.57000038303073 96.90905665430944 75.26629027671277 H 0.0 **** 0.06
36976 C 69.06401875002916 190.81679929297403 103.09635330238035 C 0.0 **** -0.24
36977 H 69.1530177428044 191.09517041362994 102.0461393860586 H 0.0 **** 0.06
36978 H 69.79960669095263 191.36850594153293 103.68209362763318 H 0.0 **** 0.06
36979 H 69.24116521858775 189.7469084600188 103.20420180334764 H 0.0 **** 0.06
36980 H 68.06148793640202 191.0573507518488 103.45078317810587 H 0.0 **** 0.06
36981 C 173.45494405747357 113.38985530746663 226.09168726154337 C 0.0 **** -0.24
36982 H 173.02606356525027 114.02202600080813 226.86959491218224 H 0.0 **** 0.06
36983 H 174.40736326306703 112.98678541359249 226.4363260418184 H 0.0 **** 0.06
36984 H 173.6137498996503 113.98111026444809 225.1904232383971 H 0.0 **** 0.06
36985 H 172.77055379617718 112.57018070207033 225.87223548184565 H 0.0 **** 0.06
36986 C 85.81625137344295 86.1585646525119 237.855262390046 C 0.0 **** -0.24
36987 H 86.24097079599883 86.7093668303753 237.01650918798046 H 0.0 **** 0.06
36988 H 85.83325727246111 85.09066869390017 237.63543154841278 H 0.0 **** 0.06
36989 H 84.78687744978859 86.47988105177157 238.0159038272734 H 0.0 **** 0.06
36990 H 86.40220741778694 86.35469717365757 238.7531093233992 H 0.0 **** 0.06
36991 C 54.016340472050615 55.268180418762654 161.39798909034178 C 0.0 **** -0.24
36992 H 54.96474762430867 55.30795872335008 160.86256110679204 H 0.0 **** 0.06
36993 H 54.19867670369459 55.004497671835395 162.4393485229643 H 0.0 **** 0.06
36994 H 53.371717324193284 54.51806320386049 160.94028096675206 H 0.0 **** 0.06
36995 H 53.53161190534661 56.243201270261665 161.34951101695285 H 0.0 **** 0.06
36996 C 115.31965643857089 42.03517146067962 140.83985277454903 C 0.0 **** -0.24
36997 H 116.30136297988872 41.63190130942277 141.08928417923622 H 0.0 **** 0.06
36998 H 115.09216337107995 42.87146584808852 141.50187103986516 H 0.0 **** 0.06
36999 H 114.56615795296406 41.25838481507357 140.96203333277796 H 0.0 **** 0.06
37000 H 115.32232627006181 42.381281264642325 139.80604116252175 H 0.0 **** 0.06
37001 C 168.1428176225908 140.9200130173906 129.30995515031606 C 0.0 **** -0.24
37002 H 168.06533822805795 140.29760340900552 128.41781065321538 H 0.0 **** 0.06
37003 H 167.28003404434503 140.74145441756474 129.95279875995797 H 0.0 **** 0.06
37004 H 168.16860341289905 141.96951140403712 129.01870648138535 H 0.0 **** 0.06
37005 H 169.05636982579563 140.66935351336778 129.84972339733906 H 0.0 **** 0.06
37006 C 17.727013000049624 153.84554012101663 67.3576578753588 C 0.0 **** -0.24
37007 H 18.306274301438464 154.27286957477565 66.53948952692991 H 0.0 **** 0.06
37008 H 16.98676508137396 154.57125620089724 67.69628712840444 H 0.0 **** 0.06
37009 H 18.39369961363694 153.59508459864452 68.18323074683974 H 0.0 **** 0.06
37010 H 17.22132465424876 152.94363471508436 67.01235292677057 H 0.0 **** 0.06
37011 C 99.4545869446757 203.50197756829863 203.1322495911889 C 0.0 **** -0.24
37012 H 100.38648357903784 204.05718236561034 203.24106534863998 H 0.0 **** 0.06
37013 H 98.66461174817854 204.0064290005202 203.68799189071444 H 0.0 **** 0.06
37014 H 99.58697072490386 202.49287856052695 203.52352354135786 H 0.0 **** 0.06
37015 H 99.18225685416789 203.4507753989982 202.07858160838038 H 0.0 **** 0.06
37016 C 132.0672116855528 84.58444182707373 32.114858424353 C 0.0 **** -0.24
37017 H 131.0124837902657 84.45930287743542 32.36015188322135 H 0.0 **** 0.06
37018 H 132.34241009956088 83.88135494340119 31.328062233568573 H 0.0 **** 0.06
37019 H 132.6716742203361 84.39235675260878 33.001430440044516 H 0.0 **** 0.06
37020 H 132.24162023500108 85.60271230628857 31.76915414978754 H 0.0 **** 0.06
37021 C 182.25372174849187 23.9120471927515 230.36208369586933 C 0.0 **** -0.24
37022 H 183.2743507158089 23.846824871383618 230.73784707820778 H 0.0 **** 0.06
37023 H 181.635908281181 23.161011291769583 230.8546973042452 H 0.0 **** 0.06
37024 H 182.25132975639485 23.73571363791396 229.28543967582868 H 0.0 **** 0.06
37025 H 181.85391619252468 24.904827641985904 230.5682100274255 H 0.0 **** 0.06
37026 C 12.00749250987009 220.67393902684142 229.90270845480305 C 0.0 **** -0.24
37027 H 13.071496340512184 220.5357130425634 229.71189181501705 H 0.0 **** 0.06
37028 H 11.57751107777652 221.30497234277456 229.12387053417518 H 0.0 **** 0.06
37029 H 11.871997975698335 221.15160622687065 230.87368314968484 H 0.0 **** 0.06
37030 H 11.508628248317308 219.70420246327888 229.90254687955508 H 0.0 **** 0.06
37031 C 25.968302829442322 141.79368797254764 1.8950450188520165 C 0.0 **** -0.24
37032 H 26.06029853917053 141.8639331028176 2.978880790576568 H 0.0 **** 0.06
37033 H 26.953244663921524 141.63708846381624 1.4563928384656322 H 0.0 **** 0.06
37034 H 25.54042097700294 142.71832595445844 1.5064484401268317 H 0.0 **** 0.06
37035 H 25.318938737673392 140.9566212168192 1.6391093053550492 H 0.0 **** 0.06
37036 C 113.73976298162273 81.73474979672184 244.39955268428923 C 0.0 **** -0.24
37037 H 113.53650677643208 81.02258264648958 243.60039160853904 H 0.0 **** 0.06
37038 H 114.75420797939142 82.1208010379894 244.29237353770435 H 0.0 **** 0.06
37039 H 113.63993662491572 81.23712307653085 245.36413493276513 H 0.0 **** 0.06
37040 H 113.02914934777783 82.55929839828599 244.3404219942767 H 0.0 **** 0.06
37041 C 96.64632838317522 120.41341934351382 246.06190809178057 C 0.0 **** -0.24
37042 H 96.9000983671036 119.5183985619608 246.6293093238129 H 0.0 **** 0.06
37043 H 96.20266074484334 120.12567831306649 245.10787679680692 H 0.0 **** 0.06
37044 H 97.54917185910466 120.99771038497752 245.88173258154512 H 0.0 **** 0.06
37045 H 95.93353635545108 121.01274715193628 246.6292054405828 H 0.0 **** 0.06
37046 C 82.38551323515728 207.32754719334233 151.94627588180708 C 0.0 **** -0.24
37047 H 83.11203358714835 208.1216127139938 151.77509267015662 H 0.0 **** 0.06
37048 H 82.39438511387215 207.0487053012282 153.00043719186135 H 0.0 **** 0.06
37049 H 82.64371152553397 206.46128591304927 151.3383304959043 H 0.0 **** 0.06
37050 H 81.39061262998729 207.6801668890085 151.6725776636578 H 0.0 **** 0.06
37051 C 193.11617436210082 97.14579791547627 162.90545901988563 C 0.0 **** -0.24
37052 H 192.5523369727697 97.62832547612459 163.70470624989204 H 0.0 **** 0.06
37053 H 192.4792139086186 97.03447734732183 162.02877568649134 H 0.0 **** 0.06
37054 H 193.45051309817723 96.16312206711342 163.2400488705093 H 0.0 **** 0.06
37055 H 193.98190073546297 97.75719191418952 162.6519737375239 H 0.0 **** 0.06
37056 C 156.9834199258164 92.9609925434541 191.09144642789806 C 0.0 **** -0.24
37057 H 157.37657016518907 93.94900109398714 190.84884062242566 H 0.0 **** 0.06
37058 H 157.31085057843075 92.24458794450072 190.33770695571428 H 0.0 **** 0.06
37059 H 155.89447651149325 92.99881211244218 191.1082536850418 H 0.0 **** 0.06
37060 H 157.35147741267807 92.65421458180191 192.06960312331444 H 0.0 **** 0.06
37061 C 23.964796845053087 203.77715242257528 152.80505609346673 C 0.0 **** -0.24
37062 H 22.92334714236179 204.01349030589694 152.58526187755848 H 0.0 **** 0.06
37063 H 24.54857280509924 204.69705090999165 152.8281204576038 H 0.0 **** 0.06
37064 H 24.357413514761433 203.11555229384703 152.0323886378725 H 0.0 **** 0.06
37065 H 24.028519118651914 203.28161827075658 153.77381145230243 H 0.0 **** 0.06
37066 C 181.83444059504882 46.1107712177559 99.0834286285596 C 0.0 **** -0.24
37067 H 181.54091282264022 46.013441532756104 100.12892418285023 H 0.0 **** 0.06
37068 H 181.6623633897418 47.13555464991026 98.75246649541165 H 0.0 **** 0.06
37069 H 181.24155661842093 45.42834803519142 98.47463904534575 H 0.0 **** 0.06
37070 H 182.89182145403112 45.86787109302037 98.97816791496481 H 0.0 **** 0.06
37071 C 2.5076654749306755 23.768377030103608 206.07773460613288 C 0.0 **** -0.24
37072 H 2.971054655527098 24.755042349207002 206.0444540330883 H 0.0 **** 0.06
37073 H 2.5045953322394894 23.335373401009946 205.07764711179996 H 0.0 **** 0.06
37074 H 1.4839132109455875 23.860441261255374 206.43838684013673 H 0.0 **** 0.06
37075 H 3.0736706948037806 23.12466523124462 206.75102338487116 H 0.0 **** 0.06
37076 C 37.67674839886429 213.61523549349835 52.55748195423995 C 0.0 **** -0.24
37077 H 38.39732511979332 214.0028276516122 51.835804672869244 H 0.0 **** 0.06
37078 H 38.12134831413134 213.6205391770695 53.55301817258069 H 0.0 **** 0.06
37079 H 37.40308443882121 212.59626910931757 52.28516576574468 H 0.0 **** 0.06
37080 H 36.78613462760022 214.24435898327877 52.55397156270733 H 0.0 **** 0.06
37081 C 57.08071658116836 171.0954965503972 64.4071123626075 C 0.0 **** -0.24
37082 H 57.71192204698613 171.56540678447308 63.65280367115156 H 0.0 **** 0.06
37083 H 57.70253951746517 170.51962588599616 65.09302036608784 H 0.0 **** 0.06
37084 H 56.365731190371775 170.43271599345593 63.92071706738491 H 0.0 **** 0.06
37085 H 56.544664375207475 171.8650215775084 64.96255797973299 H 0.0 **** 0.06
37086 C 7.262366244854633 38.77143424036282 55.06334751975905 C 0.0 **** -0.24
37087 H 7.32534175560599 37.84922182088695 54.48669693542624 H 0.0 **** 0.06
37088 H 8.135040257801023 39.39064478948745 54.85430461109567 H 0.0 **** 0.06
37089 H 7.231381857761704 38.53417223321729 56.126595502751655 H 0.0 **** 0.06
37090 H 6.3577011082496995 39.311698117859635 54.78579302976269 H 0.0 **** 0.06
37091 C 0.4762028809586383 187.45593490800093 167.06108500448107 C 0.0 **** -0.24
37092 H -0.3805527019307817 187.3576154095491 167.72734449714017 H 0.0 **** 0.06
37093 H 0.2066946243787129 187.0960791131406 166.06729443718731 H 0.0 **** 0.06
37094 H 1.3068786543718716 186.8649700184248 167.44864253704824 H 0.0 **** 0.06
37095 H 0.7724115506422038 188.5029084954162 167.00009897705183 H 0.0 **** 0.06
37096 C 171.22881927154054 228.26724644415145 45.60406671407097 C 0.0 **** -0.24
37097 H 172.22599988923577 228.70583438073797 45.6464814611015 H 0.0 **** 0.06
37098 H 170.89061703121462 228.23301122059598 44.56834244339649 H 0.0 **** 0.06
37099 H 170.5397049514932 228.87407308315346 46.192417344698285 H 0.0 **** 0.06
37100 H 171.2599716551162 227.25603054722083 46.01101697874044 H 0.0 **** 0.06
37101 C 40.192158530645614 100.72781014626841 103.66293938069157 C 0.0 **** -0.24
37102 H 40.67238528203157 99.75146217100342 103.71775229499482 H 0.0 **** 0.06
37103 H 39.53609405541282 100.76187908138363 102.792688101464 H 0.0 **** 0.06
37104 H 40.95343285696221 101.5024563690344 103.57586360973988 H 0.0 **** 0.06
37105 H 39.604768676075906 100.89470107416236 104.56625004334467 H 0.0 **** 0.06
37106 C 149.80219497893685 51.671357883900924 54.907845704675594 C 0.0 **** -0.24
37107 H 149.6360166022806 51.55689554694462 55.978614905500024 H 0.0 **** 0.06
37108 H 150.78414877259786 52.111418305426554 54.73784826719256 H 0.0 **** 0.06
37109 H 149.03432320304836 52.32272208468936 54.48893856070225 H 0.0 **** 0.06
37110 H 149.7521508460477 50.69431119032251 54.42662234883369 H 0.0 **** 0.06
37111 C 228.60675572044926 1.45828961801962 216.45685891238398 C 0.0 **** -0.24
37112 H 229.39114520827263 1.696274499416262 217.17539694034542 H 0.0 **** 0.06
37113 H 229.06024118192096 1.1638167642248334 215.50987356201577 H 0.0 **** 0.06
37114 H 227.97696902103215 2.3340546822763315 216.30263236636281 H 0.0 **** 0.06
37115 H 228.00101747134914 0.6372772293127014 216.8402156635472 H 0.0 **** 0.06
37116 C 177.94664733592393 76.53327716110587 36.59684048075549 C 0.0 **** -0.24
37117 H 178.13552976767508 75.72816197184491 37.30685282367381 H 0.0 **** 0.06
37118 H 178.61018337089766 76.42326356478117 35.7379472817898 H 0.0 **** 0.06
37119 H 178.1308742606686 77.49302138955423 37.07798080336613 H 0.0 **** 0.06
37120 H 176.9101108519329 76.48799012965173 36.26334120477138 H 0.0 **** 0.06
37121 C 196.63282948853606 235.58165184453196 36.70883032295795 C 0.0 **** -0.24
37122 H 195.60287814384458 235.23545936424387 36.793668761893116 H 0.0 **** 0.06
37123 H 196.68441491611338 236.3927452378256 35.982426839364805 H 0.0 **** 0.06
37124 H 197.26610659702277 234.75733716098546 36.37873489888506 H 0.0 **** 0.06
37125 H 196.97706914917887 235.93895206054856 37.67881391576225 H 0.0 **** 0.06
37126 C 86.34186501302355 248.21921880492192 178.65331292275792 C 0.0 **** -0.24
37127 H 86.33562493209195 248.44340335849188 179.72022103554747 H 0.0 **** 0.06
37128 H 87.18591014919554 247.56804262768242 178.42501932273024 H 0.0 **** 0.06
37129 H 86.43479402515584 249.14665707631661 178.08742509879193 H 0.0 **** 0.06
37130 H 85.41300845748475 247.71886466146205 178.3817972009154 H 0.0 **** 0.06
37131 C 220.12827982663936 29.353045015087076 16.765010537247363 C 0.0 **** -0.24
37132 H 220.6441494333061 28.89507508570236 15.921230554654727 H 0.0 **** 0.06
37133 H 219.65861766113778 28.57644545884446 17.368583355964063 H 0.0 **** 0.06
37134 H 219.36536857834355 30.037974903194566 16.39506318439112 H 0.0 **** 0.06
37135 H 220.84551095315933 29.90329348641299 17.37363167986925 H 0.0 **** 0.06
37136 C 206.746935329377 85.22646557347989 110.7958649438078 C 0.0 **** -0.24
37137 H 206.9626987951358 86.22465806819636 110.41422709960077 H 0.0 **** 0.06
37138 H 206.70375126978226 84.52181817560401 109.96556093457568 H 0.0 **** 0.06
37139 H 205.7887910643856 85.23621700318378 111.31626964637294 H 0.0 **** 0.06
37140 H 207.5335105221426 84.92593672473919 111.48796713675657 H 0.0 **** 0.06
37141 C 95.92223370601664 4.78554699626423 2.257649678330864 C 0.0 **** -0.24
37142 H 95.79053570572347 4.625457926111309 1.187875081297932 H 0.0 **** 0.06
37143 H 96.82870824397537 5.367098069871346 2.428447334312523 H 0.0 **** 0.06
37144 H 96.00709643863308 3.8221476164255392 2.7610943399878636 H 0.0 **** 0.06
37145 H 95.06357460755433 5.32754101985725 2.6529920523928183 H 0.0 **** 0.06
37146 C 121.35546843977951 106.52064489905368 208.46782719114955 C 0.0 **** -0.24
37147 H 121.05373572298231 106.60893626116953 209.51178053188502 H 0.0 **** 0.06
37148 H 121.81608729305518 105.54577193483405 208.30474882099742 H 0.0 **** 0.06
37149 H 122.07167260458198 107.30590155783119 208.2282522921819 H 0.0 **** 0.06
37150 H 120.47933394882605 106.61977012992944 207.8267935618126 H 0.0 **** 0.06
37151 C 182.2542449211601 153.20120058731243 199.52861176780743 C 0.0 **** -0.24
37152 H 182.2038186465133 152.69379958062314 200.4928098769201 H 0.0 **** 0.06
37153 H 183.17813734852817 152.92546270759013 199.02158518114365 H 0.0 **** 0.06
37154 H 182.23287948952296 154.2801575805395 199.6844382796247 H 0.0 **** 0.06
37155 H 181.40089801527293 152.90556421517334 198.91833661502648 H 0.0 **** 0.06
37156 C 88.39718491281846 72.11875715877974 178.13688555058656 C 0.0 **** -0.24
37157 H 88.95489967381891 71.83214094578167 179.02937755434516 H 0.0 **** 0.06
37158 H 87.91744896153557 73.08322274922847 178.30260853643517 H 0.0 **** 0.06
37159 H 87.63799848046307 71.36527096918886 177.92703300121934 H 0.0 **** 0.06
37160 H 89.08060358869051 72.1925250827386 177.2901413216034 H 0.0 **** 0.06
37161 C 190.68633051049204 229.54878352367632 17.548640938141418 C 0.0 **** -0.24
37162 H 191.2286287819669 229.3837598129943 16.61746515897761 H 0.0 **** 0.06
37163 H 189.75380609695935 230.07307405023914 17.337020423303485 H 0.0 **** 0.06
37164 H 191.29602610120435 230.14980207230187 18.222843840890576 H 0.0 **** 0.06
37165 H 190.4658611878491 228.58929654809216 18.01514557723995 H 0.0 **** 0.06
37166 C 38.09296884527336 216.0447327842199 190.61586621062042 C 0.0 **** -0.24
37167 H 38.879023343942805 215.29541831513856 190.52609587096515 H 0.0 **** 0.06
37168 H 37.29217459403682 215.65736164010235 191.24611595257176 H 0.0 **** 0.06
37169 H 37.696928058839575 216.27642425698065 189.62653545819785 H 0.0 **** 0.06
37170 H 38.50356221674829 216.94952052475233 191.06333105908055 H 0.0 **** 0.06
37171 C 53.75848738971234 28.304401836099686 52.96400911076611 C 0.0 **** -0.24
37172 H 54.53347651962309 27.695001098837338 53.428651076939076 H 0.0 **** 0.06
37173 H 53.578023603496035 27.950192077963095 51.94906190099769 H 0.0 **** 0.06
37174 H 54.084412167147576 29.344265972073202 52.93459499488782 H 0.0 **** 0.06
37175 H 52.84011108992367 28.227700155950842 53.54495263689935 H 0.0 **** 0.06
37176 C 155.21921816297365 231.60478042868792 152.2359473836346 C 0.0 **** -0.24
37177 H 155.3212819163256 231.41906107880172 151.16656022912508 H 0.0 **** 0.06
37178 H 154.89181688752544 232.6321619814385 152.39694466323766 H 0.0 **** 0.06
37179 H 156.18165775811818 231.44947577925646 152.7238203832985 H 0.0 **** 0.06
37180 H 154.48363267481736 230.91769497947928 152.6546837543334 H 0.0 **** 0.06
37181 C 26.541411093906774 40.72464790409745 145.89656584434314 C 0.0 **** -0.24
37182 H 27.359623065302216 40.38702958738892 145.26131109193318 H 0.0 **** 0.06
37183 H 26.716114659040798 41.75849179128497 146.1941075190627 H 0.0 **** 0.06
37184 H 26.487394971539814 40.0944415222161 146.78424976523226 H 0.0 **** 0.06
37185 H 25.60346451047657 40.65832569948046 145.34657754763452 H 0.0 **** 0.06
37186 C 213.62315048463998 89.1338748113956 242.6589157852721 C 0.0 **** -0.24
37187 H 213.40149927360002 89.87008036335061 241.885798263717 H 0.0 **** 0.06
37188 H 214.7006549010639 88.97361850706218 242.7095589472715 H 0.0 **** 0.06
37189 H 213.1265954785477 88.19312299122927 242.4174210123681 H 0.0 **** 0.06
37190 H 213.26336673988737 89.49753870910939 243.62102273784734 H 0.0 **** 0.06
37191 C 147.6581575881857 51.25839735496561 221.31740167696904 C 0.0 **** -0.24
37192 H 147.5944483397984 50.804144470542866 222.3064982464182 H 0.0 **** 0.06
37193 H 147.06054354799213 52.169360371215845 221.29749177672485 H 0.0 **** 0.06
37194 H 147.28138629405314 50.55917619866179 220.57054041739008 H 0.0 **** 0.06
37195 H 148.6981427539774 51.50048692128982 221.09619345906242 H 0.0 **** 0.06
37196 C 132.35198776321315 222.71185780372087 203.4233594505517 C 0.0 **** -0.24
37197 H 131.54396272960136 221.98632929703223 203.50682490553743 H 0.0 **** 0.06
37198 H 132.67161628801747 223.01541051121563 204.42048027240781 H 0.0 **** 0.06
37199 H 132.00205006214392 223.58489847027124 202.87212068826804 H 0.0 **** 0.06
37200 H 133.19196147840205 222.26023640678582 202.89396370350903 H 0.0 **** 0.06
37201 C 8.633004731699458 103.67092635744908 90.64976099641154 C 0.0 **** -0.24
37202 H 8.753106497626078 104.23740175908003 91.57295260671961 H 0.0 **** 0.06
37203 H 9.348560864285417 102.84953420875817 90.63102818948468 H 0.0 **** 0.06
37204 H 8.809745999525518 104.32678635538062 89.79708065781358 H 0.0 **** 0.06
37205 H 7.620320382517178 103.2723481640356 90.59741224013209 H 0.0 **** 0.06
37206 C 229.53094373599598 38.72862009420399 145.87397008442332 C 0.0 **** -0.24
37207 H 228.9975858345249 38.724125943380926 146.82440615162847 H 0.0 **** 0.06
37208 H 229.53674629509766 39.73865646651413 145.46512852742703 H 0.0 **** 0.06
37209 H 229.03454448050388 38.05514244297001 145.17500141147477 H 0.0 **** 0.06
37210 H 230.5570410922926 38.39472563510623 146.03309358995892 H 0.0 **** 0.06
37211 C 206.43832600932373 116.34006623475133 149.53349328630918 C 0.0 **** -0.24
37212 H 207.0631768128584 115.44929638064707 149.60629521055944 H 0.0 **** 0.06
37213 H 205.51188046367727 116.09169592436646 149.01564445754647 H 0.0 **** 0.06
37214 H 206.97100545846754 117.1117799745999 148.97862206865852 H 0.0 **** 0.06
37215 H 206.20904348809304 116.70493474188274 150.5352028634513 H 0.0 **** 0.06
37216 C 25.991187968049275 144.66057243239834 118.8454703386034 C 0.0 **** -0.24
37217 H 26.34900349482794 144.66057123028352 117.81579436072221 H 0.0 **** 0.06
37218 H 24.90758055906906 144.53749575765622 118.85266040600291 H 0.0 **** 0.06
37219 H 26.25305799300068 145.6057390782941 119.32132186270144 H 0.0 **** 0.06
37220 H 26.45468251962444 143.83857760330918 119.39120550594617 H 0.0 **** 0.06
37221 C 1.4560836233322902 141.92443045198723 91.19703199810365 C 0.0 **** -0.24
37222 H 1.373459176971096 143.00446234661203 91.31405706243592 H 0.0 **** 0.06
37223 H 2.1832909765179096 141.5359898859033 91.91066073191101 H 0.0 **** 0.06
37224 H 1.782554736794566 141.69267426262965 90.18357146954426 H 0.0 **** 0.06
37225 H 0.4853829619291048 141.46465731289592 91.38077216476938 H 0.0 **** 0.06
37226 C 168.5054705424241 248.93196978715733 14.483833821552949 C 0.0 **** -0.24
37227 H 168.39614013048126 249.89028016927767 14.991523334138819 H 0.0 **** 0.06
37228 H 169.0131636585476 249.0818411764546 13.531271576573843 H 0.0 **** 0.06
37229 H 167.51945143316325 248.50036231071346 14.307340516430529 H 0.0 **** 0.06
37230 H 169.09121183881322 248.25705665167342 15.106454046356049 H 0.0 **** 0.06
37231 C 172.81705001232547 36.004689196239866 49.02352813205802 C 0.0 **** -0.24
37232 H 173.6183062343873 35.42980534718683 49.48819855167295 H 0.0 **** 0.06
37233 H 172.44377144817605 35.467776098959035 48.15084776726523 H 0.0 **** 0.06
37234 H 173.20111608452757 36.977464647749485 48.71447837240744 H 0.0 **** 0.06
37235 H 172.00778488969735 36.14384937882605 49.73946525335768 H 0.0 **** 0.06
37236 C 151.54930746429275 201.61308741845158 212.52597922210367 C 0.0 **** -0.24
37237 H 151.61011383675432 201.22911858891936 211.50727460361853 H 0.0 **** 0.06
37238 H 152.11454143745158 202.54215777214267 212.59789862083295 H 0.0 **** 0.06
37239 H 151.9647884989635 200.87888764004606 213.21618771514943 H 0.0 **** 0.06
37240 H 150.5062316451063 201.80075952281254 212.78042289844825 H 0.0 **** 0.06
37241 C 228.61847632242794 74.39280218830845 64.67362229274448 C 0.0 **** -0.24
37242 H 228.10244754737772 75.12092958770961 65.30036576013018 H 0.0 **** 0.06
37243 H 228.73166470474033 73.457423271348 65.22181408618712 H 0.0 **** 0.06
37244 H 229.6018160513765 74.7783492548705 64.40459254568611 H 0.0 **** 0.06
37245 H 228.03721732855212 74.21645482587817 63.76850895193408 H 0.0 **** 0.06
37246 C 125.52719319279026 8.559783974913785 128.31442711196604 C 0.0 **** -0.24
37247 H 124.97588240808537 8.391559558543236 127.38947817810276 H 0.0 **** 0.06
37248 H 124.83200152979379 8.580820900481598 129.15365030504728 H 0.0 **** 0.06
37249 H 126.05401398757462 9.512955763128701 128.2545190440007 H 0.0 **** 0.06
37250 H 126.24847652582179 7.7555945713515655 128.45826841840727 H 0.0 **** 0.06
37251 C 102.93804645149507 158.2534663938465 28.524504539225944 C 0.0 **** -0.24
37252 H 103.78043911728048 157.5705719815964 28.63612169998818 H 0.0 **** 0.06
37253 H 103.24953456642439 159.26206548357297 28.79875918958625 H 0.0 **** 0.06
37254 H 102.12341274125748 157.93523449288023 29.174277526266437 H 0.0 **** 0.06
37255 H 102.60042622980535 158.24677092115633 27.48753716385093 H 0.0 **** 0.06
37256 C 145.30792096475795 128.97708132157706 101.38083724922896 C 0.0 **** -0.24
37257 H 146.0844554608924 128.93485504330513 102.14364500534296 H 0.0 **** 0.06
37258 H 145.4401523234916 129.8745551182847 100.77630997613298 H 0.0 **** 0.06
37259 H 144.32824201346943 129.00326886249348 101.86025351461925 H 0.0 **** 0.06
37260 H 145.37640831516904 128.09586460023812 100.74287945822843 H 0.0 **** 0.06
37261 C 191.73285845406357 111.00763395823449 214.27180774903192 C 0.0 **** -0.24
37262 H 191.1411263626149 111.22149524333432 215.16147793784577 H 0.0 **** 0.06
37263 H 192.71817616562842 110.64830996632455 214.56947845592902 H 0.0 **** 0.06
37264 H 191.84152251673166 111.91736099709087 213.68114591078466 H 0.0 **** 0.06
37265 H 191.23153388111967 110.24474827898771 213.6766265356622 H 0.0 **** 0.06
37266 C 3.2171787512722005 211.54605631450795 89.39795125155703 C 0.0 **** -0.24
37267 H 2.902424404639902 211.1226988828052 90.35167802235989 H 0.0 **** 0.06
37268 H 4.304493442072584 211.61473484583632 89.37274040630354 H 0.0 **** 0.06
37269 H 2.785985960892617 212.540933386294 89.28265612001593 H 0.0 **** 0.06
37270 H 2.873893319394483 210.90555922626402 88.58521256885629 H 0.0 **** 0.06
37271 C 14.213064154327611 35.52125075877538 85.27178616464747 C 0.0 **** -0.24
37272 H 15.169834702107295 35.01997387297544 85.41945530676972 H 0.0 **** 0.06
37273 H 13.405188804458732 34.86404531955813 85.59736261178506 H 0.0 **** 0.06
37274 H 14.085972365482888 35.757571219070854 84.21508474450891 H 0.0 **** 0.06
37275 H 14.191291190088322 36.44109332790387 85.85602939598871 H 0.0 **** 0.06
37276 C 142.860696781234 58.336591247684964 66.17079480659584 C 0.0 **** -0.24
37277 H 142.77573313135727 59.382344644382584 65.87683295179696 H 0.0 **** 0.06
37278 H 141.8735446077644 57.87482210475335 66.16155299848765 H 0.0 **** 0.06
37279 H 143.28229462821352 58.274109445263576 67.1740399657167 H 0.0 **** 0.06
37280 H 143.51241371612952 57.81468446684261 65.470121617752 H 0.0 **** 0.06
37281 C 237.5452060337155 213.19132129519892 147.58509854251696 C 0.0 **** -0.24
37282 H 238.1477502070182 213.98643591529185 147.14699031336286 H 0.0 **** 0.06
37283 H 238.14437229741975 212.63859645941673 148.30913971511313 H 0.0 **** 0.06
37284 H 237.21008267648784 212.51428172637867 146.7985330086028 H 0.0 **** 0.06
37285 H 236.67969246225715 213.6250479939921 148.0847333745726 H 0.0 **** 0.06
37286 C 130.97700764355073 96.25457585818009 22.152053297756282 C 0.0 **** -0.24
37287 H 130.1744923319237 96.91094783193779 21.81327078554122 H 0.0 **** 0.06
37288 H 131.6778131116842 96.82443992701715 22.763320196699937 H 0.0 **** 0.06
37289 H 131.49791213532401 95.84307914110025 21.287950570092704 H 0.0 **** 0.06
37290 H 130.55564169521452 95.44213472514403 22.743609471414146 H 0.0 **** 0.06
37291 C 77.50095294151936 180.92761496850588 140.24489619831186 C 0.0 **** -0.24
37292 H 77.6182614275894 181.74747592482015 139.53537007989846 H 0.0 **** 0.06
37293 H 76.89515759062573 181.26118789900354 141.08764507291707 H 0.0 **** 0.06
37294 H 78.48156491183758 180.61364233849196 140.6029282120832 H 0.0 **** 0.06
37295 H 77.00850516410344 180.08987214211064 139.7522475386578 H 0.0 **** 0.06
37296 C 49.45526503205659 185.8358410676007 213.5940987654587 C 0.0 **** -0.24
37297 H 48.63822500748407 186.49439949303033 213.2989768076 H 0.0 **** 0.06
37298 H 49.69211649379153 185.16003154931082 212.77243737073613 H 0.0 **** 0.06
37299 H 49.158165650571476 185.25684878123275 214.46776028233282 H 0.0 **** 0.06
37300 H 50.333779954805294 186.4339538065958 213.83721243468347 H 0.0 **** 0.06
37301 C 144.67353424415836 226.86074598063064 63.76419728548703 C 0.0 **** -0.24
37302 H 143.5892855865457 226.75791877451138 63.7420846391112 H 0.0 **** 0.06
37303 H 145.1284466714051 225.87990877674662 63.90332181389269 H 0.0 **** 0.06
37304 H 144.95916550551328 227.51356622289006 64.58874144944073 H 0.0 **** 0.06
37305 H 145.01703188058934 227.29116528049838 62.82352243768 H 0.0 **** 0.06
37306 C 4.09642200994999 171.11591348640826 190.26711225256335 C 0.0 **** -0.24
37307 H 4.654344927477709 171.4701975979253 189.40022278018063 H 0.0 **** 0.06
37308 H 3.2403489290546617 170.52915927754876 189.93238257334193 H 0.0 **** 0.06
37309 H 3.7476358675675385 171.97031634791063 190.84771155717203 H 0.0 **** 0.06
37310 H 4.74332170111073 170.49536309070655 190.88611027482773 H 0.0 **** 0.06
37311 C 37.066192908632075 3.9727008696280564 37.04709413744533 C 0.0 **** -0.24
37312 H 36.91577657652567 4.12717595308186 35.97803241933653 H 0.0 **** 0.06
37313 H 36.38903350195946 3.195035685189609 37.40031583502099 H 0.0 **** 0.06
37314 H 36.864196112650944 4.902175474185654 37.580235611495965 H 0.0 **** 0.06
37315 H 38.097362128668635 3.6675879222579795 37.22713220289907 H 0.0 **** 0.06
37316 C 2.737236453400186 50.94926099371435 126.91716761012071 C 0.0 **** -0.24
37317 H 1.8748264502783343 51.149820103419415 127.55268519185822 H 0.0 **** 0.06
37318 H 2.4320305951693797 50.32237595372138 126.07961576386126 H 0.0 **** 0.06
37319 H 3.5028377356574367 50.43361757396602 127.49783973804512 H 0.0 **** 0.06
37320 H 3.137590939142825 51.89022213897255 126.54121818870178 H 0.0 **** 0.06
37321 C 126.95983351467527 56.72653601560171 34.32863069421883 C 0.0 **** -0.24
37322 H 126.04362669661197 57.10692122891257 33.87744035614887 H 0.0 **** 0.06
37323 H 126.99530530833084 55.64210957547502 34.21946738941287 H 0.0 **** 0.06
37324 H 126.97800245816916 56.98592948929513 35.387642258963936 H 0.0 **** 0.06
37325 H 127.82157636047697 57.170616309820474 33.82995591766658 H 0.0 **** 0.06
37326 C 175.90299154514872 11.320652693946784 146.61742900168932 C 0.0 **** -0.24
37327 H 175.44202964674747 12.202068333266396 146.1700900009706 H 0.0 **** 0.06
37328 H 175.30736298232588 10.992047940012498 147.46914673698967 H 0.0 **** 0.06
37329 H 176.91033489509448 11.569205357351365 146.9515540058917 H 0.0 **** 0.06
37330 H 175.95185902860578 10.522098864205446 145.87752474194454 H 0.0 **** 0.06
37331 C 154.4056471738509 112.59937645179832 43.77411126505041 C 0.0 **** -0.24
37332 H 153.58650791526446 112.28557178837988 43.12633423025588 H 0.0 **** 0.06
37333 H 155.12156624576116 113.18264575198049 43.194883868939115 H 0.0 **** 0.06
37334 H 154.90111241742733 111.718931576697 44.18434119045176 H 0.0 **** 0.06
37335 H 154.0129164876345 113.20840149916194 44.58825109798798 H 0.0 **** 0.06
37336 C 220.63805954314245 204.6297772243816 1.508219414275871 C 0.0 **** -0.24
37337 H 221.67072115877608 204.9256730364056 1.3249376105806192 H 0.0 **** 0.06
37338 H 220.31403769848728 205.02236965309066 2.472223356838427 H 0.0 **** 0.06
37339 H 220.56803477705338 203.542850914521 1.51598351593762 H 0.0 **** 0.06
37340 H 220.0009230551922 205.03010441269979 0.7202284259750087 H 0.0 **** 0.06
37341 C 175.54048122014348 172.19164093780321 82.08127005406993 C 0.0 **** -0.24
37342 H 174.7980508287265 171.691475136126 81.45960949465015 H 0.0 **** 0.06
37343 H 175.1994944369941 172.20095503874202 83.11657813935349 H 0.0 **** 0.06
37344 H 175.67549268361 173.21593349238734 81.73357731864166 H 0.0 **** 0.06
37345 H 176.48877445069604 171.65724461307158 82.01504243905643 H 0.0 **** 0.06
37346 C 247.89815170339003 192.37628636484558 29.662981850273667 C 0.0 **** -0.24
37347 H 248.9353259520371 192.5571094165853 29.94717576572654 H 0.0 **** 0.06
37348 H 247.8712857035867 191.81485095163094 28.728670300861125 H 0.0 **** 0.06
37349 H 247.38691933141249 193.3286737071698 29.530078271608517 H 0.0 **** 0.06
37350 H 247.40203545770464 191.80341684971933 30.445796482731822 H 0.0 **** 0.06
37351 C 63.769015455768795 238.17218482864956 149.9351643493849 C 0.0 **** -0.24
37352 H 64.14423184643763 237.25875202148413 150.39723549262533 H 0.0 **** 0.06
37353 H 63.54581952011844 238.90560642199392 150.7100758997184 H 0.0 **** 0.06
37354 H 62.86141793534463 237.94803676732963 149.3743533649171 H 0.0 **** 0.06
37355 H 64.52329517349389 238.57375816320928 149.25978629507995 H 0.0 **** 0.06
37356 C 26.23145988958467 49.3551256255642 194.66458111823422 C 0.0 **** -0.24
37357 H 25.562110795030804 49.977399911784715 195.25847005563784 H 0.0 **** 0.06
37358 H 25.74431120188555 49.09425109270333 193.72465813720777 H 0.0 **** 0.06
37359 H 26.46792202833936 48.445730370790756 195.2167654116077 H 0.0 **** 0.06
37360 H 27.149948988509635 49.90462231327598 194.45902642559253 H 0.0 **** 0.06
37361 C 186.02197655340467 75.7264815280137 33.82085234490994 C 0.0 **** -0.24
37362 H 185.17880122649564 76.39978195130587 33.66552533476367 H 0.0 **** 0.06
37363 H 186.90345479880222 76.30545338085264 34.0950425319175 H 0.0 **** 0.06
37364 H 186.2203753117679 75.17457099201042 32.90213461836018 H 0.0 **** 0.06
37365 H 185.78446544389314 75.02514362433371 34.62133294808159 H 0.0 **** 0.06
37366 C 227.85079643287176 61.92849514502589 71.95494571863293 C 0.0 **** -0.24
37367 H 228.7853541569812 61.48591175845493 72.29973605468919 H 0.0 **** 0.06
37368 H 227.96030350553855 63.01181082753257 71.9038682988062 H 0.0 **** 0.06
37369 H 227.05109442321194 61.67660174738418 72.65111953057792 H 0.0 **** 0.06
37370 H 227.60798858034588 61.54080646855479 70.96618113878415 H 0.0 **** 0.06
37371 C 183.61753510191173 110.56530820273821 197.57615847937737 C 0.0 **** -0.24
37372 H 183.23333917758683 111.44462613735993 198.0932039619302 H 0.0 **** 0.06
37373 H 184.10085532996635 109.90364305014921 198.29575445137405 H 0.0 **** 0.06
37374 H 184.34219369331805 110.87569353850373 196.82342516800898 H 0.0 **** 0.06
37375 H 182.79491268005648 110.0391038801653 197.0933863622794 H 0.0 **** 0.06
37376 C 165.41545296844544 235.67631837532022 134.72565551965653 C 0.0 **** -0.24
37377 H 165.87631055385415 236.45448297563158 134.11762697983997 H 0.0 **** 0.06
37378 H 164.68177443567714 236.12563033975357 135.39521816937412 H 0.0 **** 0.06
37379 H 166.18275282022168 235.1720429183874 135.31206302174394 H 0.0 **** 0.06
37380 H 164.9216560093179 234.9538897227837 134.07572938955119 H 0.0 **** 0.06
37381 C 85.1123571471696 168.1822752292999 16.508747648854722 C 0.0 **** -0.24
37382 H 85.84042478262538 168.7626526544175 15.942080082297622 H 0.0 **** 0.06
37383 H 84.96840449125153 167.21375329884162 16.029207788052446 H 0.0 **** 0.06
37384 H 84.16403879532416 168.71873824731932 16.538719333686487 H 0.0 **** 0.06
37385 H 85.47887819843763 168.03316873259507 17.525070016068668 H 0.0 **** 0.06
37386 C 105.53181631274018 82.26713529902398 99.42649902059239 C 0.0 **** -0.24
37387 H 106.13165822892896 82.61079729798644 98.5835964888675 H 0.0 **** 0.06
37388 H 106.1685389695441 81.73186568919095 100.13152475118841 H 0.0 **** 0.06
37389 H 104.74681263004294 81.60148435045122 99.06663986917178 H 0.0 **** 0.06
37390 H 105.08002030670357 83.12535220791287 99.92407281067327 H 0.0 **** 0.06
37391 C 136.59257078952515 12.84307206142509 227.92240478930842 C 0.0 **** -0.24
37392 H 136.41282428882104 13.452396986107829 228.80872014560452 H 0.0 **** 0.06
37393 H 137.33503602141155 13.3305490710176 227.29067453648165 H 0.0 **** 0.06
37394 H 135.66183689295028 12.726908125579683 227.36703651175273 H 0.0 **** 0.06
37395 H 136.95906785046878 11.862120788857055 228.225084612182 H 0.0 **** 0.06
37396 C 0.12121129558704524 26.021668647496412 126.63827726912598 C 0.0 **** -0.24
37397 H 0.23241227216269067 27.044932785072632 126.27946057858466 H 0.0 **** 0.06
37398 H 0.5371989962756061 25.942272799823 127.64286031971346 H 0.0 **** 0.06
37399 H 0.6510318182535286 25.342740544877827 125.97028893693516 H 0.0 **** 0.06
37400 H -0.9368423289762404 25.758379633066284 126.66092684428975 H 0.0 **** 0.06
37401 C 93.33393910135462 103.24968659431403 214.99823850213545 C 0.0 **** -0.24
37402 H 93.78390026547424 102.25995629013221 214.90770416879107 H 0.0 **** 0.06
37403 H 92.74444293488716 103.29895046475647 215.9134662905583 H 0.0 **** 0.06
37404 H 92.68938773087172 103.43442662318705 214.13880716542542 H 0.0 **** 0.06
37405 H 94.1208697714996 104.00376735676349 215.0304860023982 H 0.0 **** 0.06
37406 C 239.81180668478245 17.18129176626016 45.70152739626954 C 0.0 **** -0.24
37407 H 239.84894778516724 17.35942839390239 46.77627455281106 H 0.0 **** 0.06
37408 H 239.02610841572033 16.458895280615167 45.479200786319865 H 0.0 **** 0.06
37409 H 240.77231502152245 16.789387780870157 45.3654551121584 H 0.0 **** 0.06
37410 H 239.60177875990283 18.117966826190028 45.18497955357765 H 0.0 **** 0.06
37411 C 24.659837953962082 210.24674469334875 87.01876238086967 C 0.0 **** -0.24
37412 H 25.590418325478296 209.71382564013328 86.8238931362441 H 0.0 **** 0.06
37413 H 24.09556178940096 210.3437376752956 86.09031994466574 H 0.0 **** 0.06
37414 H 24.883978568816104 211.23682299293188 87.41398700159868 H 0.0 **** 0.06
37415 H 24.0684492351578 209.69037790036992 87.74639687027283 H 0.0 **** 0.06
37416 C 184.79637236517738 3.529582277779525 61.189787742692175 C 0.0 **** -0.24
37417 H 184.39826510333899 2.86453808956432 61.95582194543587 H 0.0 **** 0.06
37418 H 183.97344751229414 3.9587564483142472 60.61723049859867 H 0.0 **** 0.06
37419 H 185.44882074933852 2.9662583904736124 60.523090759606134 H 0.0 **** 0.06
37420 H 185.36513222442724 4.32965734753553 61.663446557591755 H 0.0 **** 0.06
37421 C 121.23236090816869 114.8273042652622 119.15561286652954 C 0.0 **** -0.24
37422 H 121.68313151115402 114.0267946205716 119.74337451434693 H 0.0 **** 0.06
37423 H 120.38655091478952 115.24567938547227 119.70105973048973 H 0.0 **** 0.06
37424 H 120.88930503186418 114.42826075648489 118.2013731131195 H 0.0 **** 0.06
37425 H 121.97270224966826 115.60804772396031 118.97858482467322 H 0.0 **** 0.06
37426 C 131.45634128711026 216.64707603944737 65.48114668506653 C 0.0 **** -0.24
37427 H 132.04318789356603 216.29884747943674 66.3310393243116 H 0.0 **** 0.06
37428 H 130.52508437711884 216.08252332923087 65.42787022871164 H 0.0 **** 0.06
37429 H 132.02453709310169 216.49984970401394 64.56321068959738 H 0.0 **** 0.06
37430 H 131.23298872340925 217.7066018729924 65.60435871819655 H 0.0 **** 0.06
37431 C 222.23255186675902 191.46629255645422 140.7907177566746 C 0.0 **** -0.24
37432 H 221.19643284042388 191.45338185579047 141.12957797910326 H 0.0 **** 0.06
37433 H 222.87843725453428 191.77880564154754 141.61233398333962 H 0.0 **** 0.06
37434 H 222.33445252796054 192.16638012424784 139.96146132926373 H 0.0 **** 0.06
37435 H 222.5185159324653 190.46805881871776 140.46200129910716 H 0.0 **** 0.06
37436 C 101.95564740358265 119.4666223816273 200.5999855825916 C 0.0 **** -0.24
37437 H 102.69588554530458 120.01657431465827 200.01867848987501 H 0.0 **** 0.06
37438 H 102.45082934024347 118.94839350445926 201.42162434559492 H 0.0 **** 0.06
37439 H 101.4579790657454 118.73868360225148 199.95840632898177 H 0.0 **** 0.06
37440 H 101.21827909260438 120.16197061866652 201.00091621367474 H 0.0 **** 0.06
37441 C 77.10134789304948 125.3493140100542 21.883218437280746 C 0.0 **** -0.24
37442 H 76.87973617924112 125.96228169408084 21.00993530479559 H 0.0 **** 0.06
37443 H 78.1202088220617 125.54824493968394 22.217856266180547 H 0.0 **** 0.06
37444 H 77.00374884385252 124.29566825743592 21.6205844178172 H 0.0 **** 0.06
37445 H 76.40175529001087 125.59028097282348 22.683874846731683 H 0.0 **** 0.06
37446 C 21.354706691492282 164.5211307423263 43.79963750607685 C 0.0 **** -0.24
37447 H 20.645217769673508 164.65688558605763 44.61663485786109 H 0.0 **** 0.06
37448 H 20.970733117346413 163.77442324689542 43.1054410150672 H 0.0 **** 0.06
37449 H 22.311608226387193 164.18648559421644 44.20181614674124 H 0.0 **** 0.06
37450 H 21.49148673952439 165.4677098589736 43.27748450526663 H 0.0 **** 0.06
37451 C 56.531732002131434 69.717455059596 211.87857448549818 C 0.0 **** -0.24
37452 H 56.57456057919535 70.80398282431426 211.80969278267457 H 0.0 **** 0.06
37453 H 57.088474007076854 69.38701546297816 212.7563333343134 H 0.0 **** 0.06
37454 H 56.97061028514696 69.27900039178925 210.98317294908927 H 0.0 **** 0.06
37455 H 55.492278732320585 69.39965233327766 211.96708949950278 H 0.0 **** 0.06
37456 C 122.11492197014812 24.31418345771297 184.44093770683065 C 0.0 **** -0.24
37457 H 121.2174561309688 24.87736607824715 184.69724216352841 H 0.0 **** 0.06
37458 H 121.92382799890981 23.710333929390657 183.55401357971033 H 0.0 **** 0.06
37459 H 122.38431302046402 23.66354913384683 185.2731330030266 H 0.0 **** 0.06
37460 H 122.9324243499178 25.006210285797835 184.24066466890315 H 0.0 **** 0.06
37461 C 22.875425485708305 34.57289465698997 46.8793684583773 C 0.0 **** -0.24
37462 H 23.43831018904838 35.42838897143017 46.50594261796783 H 0.0 **** 0.06
37463 H 21.8081476708156 34.779054820747234 46.80133245647136 H 0.0 **** 0.06
37464 H 23.137067586450854 34.39214062467471 47.92160257456415 H 0.0 **** 0.06
37465 H 23.11919982115458 33.6914725647283 46.28517846328684 H 0.0 **** 0.06
37466 C 204.9360302737777 19.716531057494223 151.77026123899864 C 0.0 **** -0.24
37467 H 205.8109632885551 19.15982638245393 151.4336135004171 H 0.0 **** 0.06
37468 H 204.32221029639246 19.98147991818945 150.90940950669548 H 0.0 **** 0.06
37469 H 205.25721911673293 20.62289253007296 152.28199765738523 H 0.0 **** 0.06
37470 H 204.35469306439308 19.099112260298952 152.45494923033974 H 0.0 **** 0.06
37471 C 20.58714926611495 226.26446047807084 0.20369127439894896 C 0.0 **** -0.24
37472 H 20.6791331831989 225.81392759172368 1.1917462538351629 H 0.0 **** 0.06
37473 H 21.22260578239097 225.72843039686745 -0.500516313382974 H 0.0 **** 0.06
37474 H 20.895050563555344 227.3086967857758 0.250090485353752 H 0.0 **** 0.06
37475 H 19.549549848012802 226.20656616855794 -0.12563116425528165 H 0.0 **** 0.06
37476 C 50.63352857953642 179.2397459391355 207.29666025405638 C 0.0 **** -0.24
37477 H 51.266876748656586 179.57470256135036 208.11768566182553 H 0.0 **** 0.06
37478 H 49.978344472104965 180.05535675234395 206.98685809331428 H 0.0 **** 0.06
37479 H 50.03000221341158 178.3934251261174 207.62525815357685 H 0.0 **** 0.06
37480 H 51.25728235480102 178.9361170019564 206.4570155390207 H 0.0 **** 0.06
37481 C 202.87233333840874 8.339036245765186 199.17710614867076 C 0.0 **** -0.24
37482 H 203.63751840861784 9.085556529382671 199.38912463871893 H 0.0 **** 0.06
37483 H 202.07599297089126 8.415313187498242 199.91772846815746 H 0.0 **** 0.06
37484 H 203.31531337399116 7.34441242189277 199.21883980185672 H 0.0 **** 0.06
37485 H 202.46170752909916 8.51377443155829 198.1824395793313 H 0.0 **** 0.06
37486 C 119.4841825031269 85.58980592414619 46.97215798904543 C 0.0 **** -0.24
37487 H 119.91584452180857 85.23776949233155 46.035475109507814 H 0.0 **** 0.06
37488 H 118.91128246619971 86.49955281563908 46.78863762479162 H 0.0 **** 0.06
37489 H 120.28196527714525 85.79991971307837 47.6835147180706 H 0.0 **** 0.06
37490 H 118.82689343561881 84.82137103463748 47.379968580451106 H 0.0 **** 0.06
37491 C 180.3013373827003 37.2116693148141 52.69785429213417 C 0.0 **** -0.24
37492 H 180.2789579631245 37.04202835034798 53.774344270664585 H 0.0 **** 0.06
37493 H 179.28292193246938 37.33070642801407 52.32764663648757 H 0.0 **** 0.06
37494 H 180.76982610062757 36.35828904190811 52.20592440288655 H 0.0 **** 0.06
37495 H 180.87455355357287 38.113419841574185 52.483929604284555 H 0.0 **** 0.06
37496 C 246.8659835247235 197.31647340636817 231.11064898821996 C 0.0 **** -0.24
37497 H 246.28556976137554 197.6350089361787 231.97648011938975 H 0.0 **** 0.06
37498 H 246.43063052076957 197.74090442444512 230.2061006811938 H 0.0 **** 0.06
37499 H 246.85128104211458 196.22832431037676 231.0449835044248 H 0.0 **** 0.06
37500 H 247.89430238278823 197.6606580435889 231.21564812755724 H 0.0 **** 0.06
@<TRIPOS>BOND
1 1 2 28
2 1 3 28
3 1 4 28
4 1 5 28
5 6 7 28
6 6 8 28
7 6 9 28
8 6 10 28
9 11 12 28
10 11 13 28
11 11 14 28
12 11 15 28
13 16 17 28
14 16 18 28
15 16 19 28
16 16 20 28
17 21 22 28
18 21 23 28
19 21 24 28
20 21 25 28
21 26 27 28
22 26 28 28
23 26 29 28
24 26 30 28
25 31 32 28
26 31 33 28
27 31 34 28
28 31 35 28
29 36 37 28
30 36 38 28
31 36 39 28
32 36 40 28
33 41 42 28
34 41 43 28
35 41 44 28
36 41 45 28
37 46 47 28
38 46 48 28
39 46 49 28
40 46 50 28
41 51 52 28
42 51 53 28
43 51 54 28
44 51 55 28
45 56 57 28
46 56 58 28
47 56 59 28
48 56 60 28
49 61 62 28
50 61 63 28
51 61 64 28
52 61 65 28
53 66 67 28
54 66 68 28
55 66 69 28
56 66 70 28
57 71 72 28
58 71 73 28
59 71 74 28
60 71 75 28
61 76 77 28
62 76 78 28
63 76 79 28
64 76 80 28
65 81 82 28
66 81 83 28
67 81 84 28
68 81 85 28
69 86 87 28
70 86 88 28
71 86 89 28
72 86 90 28
73 91 92 28
74 91 93 28
75 91 94 28
76 91 95 28
77 96 97 28
78 96 98 28
79 96 99 28
80 96 100 28
81 101 102 28
82 101 103 28
83 101 104 28
84 101 105 28
85 106 107 28
86 106 108 28
87 106 109 28
88 106 110 28
89 111 112 28
90 111 113 28
91 111 114 28
92 111 115 28
93 116 117 28
94 116 118 28
95 116 119 28
96 116 120 28
97 121 122 28
98 121 123 28
99 121 124 28
100 121 125 28
101 126 127 28
102 126 128 28
103 126 129 28
104 126 130 28
105 131 132 28
106 131 133 28
107 131 134 28
108 131 135 28
109 136 137 28
110 136 138 28
111 136 139 28
112 136 140 28
113 141 142 28
114 141 143 28
115 141 144 28
116 141 145 28
117 146 147 28
118 146 148 28
119 146 149 28
120 146 150 28
121 151 152 28
122 151 153 28
123 151 154 28
124 151 155 28
125 156 157 28
126 156 158 28
127 156 159 28
128 156 160 28
129 161 162 28
130 161 163 28
131 161 164 28
132 161 165 28
133 166 167 28
134 166 168 28
135 166 169 28
136 166 170 28
137 171 172 28
138 171 173 28
139 171 174 28
140 171 175 28
141 176 177 28
142 176 178 28
143 176 179 28
144 176 180 28
145 181 182 28
146 181 183 28
147 181 184 28
148 181 185 28
149 186 187 28
150 186 188 28
151 186 189 28
152 186 190 28
153 191 192 28
154 191 193 28
155 191 194 28
156 191 195 28
157 196 197 28
158 196 198 28
159 196 199 28
160 196 200 28
161 201 202 28
162 201 203 28
163 201 204 28
164 201 205 28
165 206 207 28
166 206 208 28
167 206 209 28
168 206 210 28
169 211 212 28
170 211 213 28
171 211 214 28
172 211 215 28
173 216 217 28
174 216 218 28
175 216 219 28
176 216 220 28
177 221 222 28
178 221 223 28
179 221 224 28
180 221 225 28
181 226 227 28
182 226 228 28
183 226 229 28
184 226 230 28
185 231 232 28
186 231 233 28
187 231 234 28
188 231 235 28
189 236 237 28
190 236 238 28
191 236 239 28
192 236 240 28
193 241 242 28
194 241 243 28
195 241 244 28
196 241 245 28
197 246 247 28
198 246 248 28
199 246 249 28
200 246 250 28
201 251 252 28
202 251 253 28
203 251 254 28
204 251 255 28
205 256 257 28
206 256 258 28
207 256 259 28
208 256 260 28
209 261 262 28
210 261 263 28
211 261 264 28
212 261 265 28
213 266 267 28
214 266 268 28
215 266 269 28
216 266 270 28
217 271 272 28
218 271 273 28
219 271 274 28
220 271 275 28
221 276 277 28
222 276 278 28
223 276 279 28
224 276 280 28
225 281 282 28
226 281 283 28
227 281 284 28
228 281 285 28
229 286 287 28
230 286 288 28
231 286 289 28
232 286 290 28
233 291 292 28
234 291 293 28
235 291 294 28
236 291 295 28
237 296 297 28
238 296 298 28
239 296 299 28
240 296 300 28
241 301 302 28
242 301 303 28
243 301 304 28
244 301 305 28
245 306 307 28
246 306 308 28
247 306 309 28
248 306 310 28
249 311 312 28
250 311 313 28
251 311 314 28
252 311 315 28
253 316 317 28
254 316 318 28
255 316 319 28
256 316 320 28
257 321 322 28
258 321 323 28
259 321 324 28
260 321 325 28
261 326 327 28
262 326 328 28
263 326 329 28
264 326 330 28
265 331 332 28
266 331 333 28
267 331 334 28
268 331 335 28
269 336 337 28
270 336 338 28
271 336 339 28
272 336 340 28
273 341 342 28
274 341 343 28
275 341 344 28
276 341 345 28
277 346 347 28
278 346 348 28
279 346 349 28
280 346 350 28
281 351 352 28
282 351 353 28
283 351 354 28
284 351 355 28
285 356 357 28
286 356 358 28
287 356 359 28
288 356 360 28
289 361 362 28
290 361 363 28
291 361 364 28
292 361 365 28
293 366 367 28
294 366 368 28
295 366 369 28
296 366 370 28
297 371 372 28
298 371 373 28
299 371 374 28
300 371 375 28
301 376 377 28
302 376 378 28
303 376 379 28
304 376 380 28
305 381 382 28
306 381 383 28
307 381 384 28
308 381 385 28
309 386 387 28
310 386 388 28
311 386 389 28
312 386 390 28
313 391 392 28
314 391 393 28
315 391 394 28
316 391 395 28
317 396 397 28
318 396 398 28
319 396 399 28
320 396 400 28
321 401 402 28
322 401 403 28
323 401 404 28
324 401 405 28
325 406 407 28
326 406 408 28
327 406 409 28
328 406 410 28
329 411 412 28
330 411 413 28
331 411 414 28
332 411 415 28
333 416 417 28
334 416 418 28
335 416 419 28
336 416 420 28
337 421 422 28
338 421 423 28
339 421 424 28
340 421 425 28
341 426 427 28
342 426 428 28
343 426 429 28
344 426 430 28
345 431 432 28
346 431 433 28
347 431 434 28
348 431 435 28
349 436 437 28
350 436 438 28
351 436 439 28
352 436 440 28
353 441 442 28
354 441 443 28
355 441 444 28
356 441 445 28
357 446 447 28
358 446 448 28
359 446 449 28
360 446 450 28
361 451 452 28
362 451 453 28
363 451 454 28
364 451 455 28
365 456 457 28
366 456 458 28
367 456 459 28
368 456 460 28
369 461 462 28
370 461 463 28
371 461 464 28
372 461 465 28
373 466 467 28
374 466 468 28
375 466 469 28
376 466 470 28
377 471 472 28
378 471 473 28
379 471 474 28
380 471 475 28
381 476 477 28
382 476 478 28
383 476 479 28
384 476 480 28
385 481 482 28
386 481 483 28
387 481 484 28
388 481 485 28
389 486 487 28
390 486 488 28
391 486 489 28
392 486 490 28
393 491 492 28
394 491 493 28
395 491 494 28
396 491 495 28
397 496 497 28
398 496 498 28
399 496 499 28
400 496 500 28
401 501 502 28
402 501 503 28
403 501 504 28
404 501 505 28
405 506 507 28
406 506 508 28
407 506 509 28
408 506 510 28
409 511 512 28
410 511 513 28
411 511 514 28
412 511 515 28
413 516 517 28
414 516 518 28
415 516 519 28
416 516 520 28
417 521 522 28
418 521 523 28
419 521 524 28
420 521 525 28
421 526 527 28
422 526 528 28
423 526 529 28
424 526 530 28
425 531 532 28
426 531 533 28
427 531 534 28
428 531 535 28
429 536 537 28
430 536 538 28
431 536 539 28
432 536 540 28
433 541 542 28
434 541 543 28
435 541 544 28
436 541 545 28
437 546 547 28
438 546 548 28
439 546 549 28
440 546 550 28
441 551 552 28
442 551 553 28
443 551 554 28
444 551 555 28
445 556 557 28
446 556 558 28
447 556 559 28
448 556 560 28
449 561 562 28
450 561 563 28
451 561 564 28
452 561 565 28
453 566 567 28
454 566 568 28
455 566 569 28
456 566 570 28
457 571 572 28
458 571 573 28
459 571 574 28
460 571 575 28
461 576 577 28
462 576 578 28
463 576 579 28
464 576 580 28
465 581 582 28
466 581 583 28
467 581 584 28
468 581 585 28
469 586 587 28
470 586 588 28
471 586 589 28
472 586 590 28
473 591 592 28
474 591 593 28
475 591 594 28
476 591 595 28
477 596 597 28
478 596 598 28
479 596 599 28
480 596 600 28
481 601 602 28
482 601 603 28
483 601 604 28
484 601 605 28
485 606 607 28
486 606 608 28
487 606 609 28
488 606 610 28
489 611 612 28
490 611 613 28
491 611 614 28
492 611 615 28
493 616 617 28
494 616 618 28
495 616 619 28
496 616 620 28
497 621 622 28
498 621 623 28
499 621 624 28
500 621 625 28
501 626 627 28
502 626 628 28
503 626 629 28
504 626 630 28
505 631 632 28
506 631 633 28
507 631 634 28
508 631 635 28
509 636 637 28
510 636 638 28
511 636 639 28
512 636 640 28
513 641 642 28
514 641 643 28
515 641 644 28
516 641 645 28
517 646 647 28
518 646 648 28
519 646 649 28
520 646 650 28
521 651 652 28
522 651 653 28
523 651 654 28
524 651 655 28
525 656 657 28
526 656 658 28
527 656 659 28
528 656 660 28
529 661 662 28
530 661 663 28
531 661 664 28
532 661 665 28
533 666 667 28
534 666 668 28
535 666 669 28
536 666 670 28
537 671 672 28
538 671 673 28
539 671 674 28
540 671 675 28
541 676 677 28
542 676 678 28
543 676 679 28
544 676 680 28
545 681 682 28
546 681 683 28
547 681 684 28
548 681 685 28
549 686 687 28
550 686 688 28
551 686 689 28
552 686 690 28
553 691 692 28
554 691 693 28
555 691 694 28
556 691 695 28
557 696 697 28
558 696 698 28
559 696 699 28
560 696 700 28
561 701 702 28
562 701 703 28
563 701 704 28
564 701 705 28
565 706 707 28
566 706 708 28
567 706 709 28
568 706 710 28
569 711 712 28
570 711 713 28
571 711 714 28
572 711 715 28
573 716 717 28
574 716 718 28
575 716 719 28
576 716 720 28
577 721 722 28
578 721 723 28
579 721 724 28
580 721 725 28
581 726 727 28
582 726 728 28
583 726 729 28
584 726 730 28
585 731 732 28
586 731 733 28
587 731 734 28
588 731 735 28
589 736 737 28
590 736 738 28
591 736 739 28
592 736 740 28
593 741 742 28
594 741 743 28
595 741 744 28
596 741 745 28
597 746 747 28
598 746 748 28
599 746 749 28
600 746 750 28
601 751 752 28
602 751 753 28
603 751 754 28
604 751 755 28
605 756 757 28
606 756 758 28
607 756 759 28
608 756 760 28
609 761 762 28
610 761 763 28
611 761 764 28
612 761 765 28
613 766 767 28
614 766 768 28
615 766 769 28
616 766 770 28
617 771 772 28
618 771 773 28
619 771 774 28
620 771 775 28
621 776 777 28
622 776 778 28
623 776 779 28
624 776 780 28
625 781 782 28
626 781 783 28
627 781 784 28
628 781 785 28
629 786 787 28
630 786 788 28
631 786 789 28
632 786 790 28
633 791 792 28
634 791 793 28
635 791 794 28
636 791 795 28
637 796 797 28
638 796 798 28
639 796 799 28
640 796 800 28
641 801 802 28
642 801 803 28
643 801 804 28
644 801 805 28
645 806 807 28
646 806 808 28
647 806 809 28
648 806 810 28
649 811 812 28
650 811 813 28
651 811 814 28
652 811 815 28
653 816 817 28
654 816 818 28
655 816 819 28
656 816 820 28
657 821 822 28
658 821 823 28
659 821 824 28
660 821 825 28
661 826 827 28
662 826 828 28
663 826 829 28
664 826 830 28
665 831 832 28
666 831 833 28
667 831 834 28
668 831 835 28
669 836 837 28
670 836 838 28
671 836 839 28
672 836 840 28
673 841 842 28
674 841 843 28
675 841 844 28
676 841 845 28
677 846 847 28
678 846 848 28
679 846 849 28
680 846 850 28
681 851 852 28
682 851 853 28
683 851 854 28
684 851 855 28
685 856 857 28
686 856 858 28
687 856 859 28
688 856 860 28
689 861 862 28
690 861 863 28
691 861 864 28
692 861 865 28
693 866 867 28
694 866 868 28
695 866 869 28
696 866 870 28
697 871 872 28
698 871 873 28
699 871 874 28
700 871 875 28
701 876 877 28
702 876 878 28
703 876 879 28
704 876 880 28
705 881 882 28
706 881 883 28
707 881 884 28
708 881 885 28
709 886 887 28
710 886 888 28
711 886 889 28
712 886 890 28
713 891 892 28
714 891 893 28
715 891 894 28
716 891 895 28
717 896 897 28
718 896 898 28
719 896 899 28
720 896 900 28
721 901 902 28
722 901 903 28
723 901 904 28
724 901 905 28
725 906 907 28
726 906 908 28
727 906 909 28
728 906 910 28
729 911 912 28
730 911 913 28
731 911 914 28
732 911 915 28
733 916 917 28
734 916 918 28
735 916 919 28
736 916 920 28
737 921 922 28
738 921 923 28
739 921 924 28
740 921 925 28
741 926 927 28
742 926 928 28
743 926 929 28
744 926 930 28
745 931 932 28
746 931 933 28
747 931 934 28
748 931 935 28
749 936 937 28
750 936 938 28
751 936 939 28
752 936 940 28
753 941 942 28
754 941 943 28
755 941 944 28
756 941 945 28
757 946 947 28
758 946 948 28
759 946 949 28
760 946 950 28
761 951 952 28
762 951 953 28
763 951 954 28
764 951 955 28
765 956 957 28
766 956 958 28
767 956 959 28
768 956 960 28
769 961 962 28
770 961 963 28
771 961 964 28
772 961 965 28
773 966 967 28
774 966 968 28
775 966 969 28
776 966 970 28
777 971 972 28
778 971 973 28
779 971 974 28
780 971 975 28
781 976 977 28
782 976 978 28
783 976 979 28
784 976 980 28
785 981 982 28
786 981 983 28
787 981 984 28
788 981 985 28
789 986 987 28
790 986 988 28
791 986 989 28
792 986 990 28
793 991 992 28
794 991 993 28
795 991 994 28
796 991 995 28
797 996 997 28
798 996 998 28
799 996 999 28
800 996 1000 28
801 1001 1002 28
802 1001 1003 28
803 1001 1004 28
804 1001 1005 28
805 1006 1007 28
806 1006 1008 28
807 1006 1009 28
808 1006 1010 28
809 1011 1012 28
810 1011 1013 28
811 1011 1014 28
812 1011 1015 28
813 1016 1017 28
814 1016 1018 28
815 1016 1019 28
816 1016 1020 28
817 1021 1022 28
818 1021 1023 28
819 1021 1024 28
820 1021 1025 28
821 1026 1027 28
822 1026 1028 28
823 1026 1029 28
824 1026 1030 28
825 1031 1032 28
826 1031 1033 28
827 1031 1034 28
828 1031 1035 28
829 1036 1037 28
830 1036 1038 28
831 1036 1039 28
832 1036 1040 28
833 1041 1042 28
834 1041 1043 28
835 1041 1044 28
836 1041 1045 28
837 1046 1047 28
838 1046 1048 28
839 1046 1049 28
840 1046 1050 28
841 1051 1052 28
842 1051 1053 28
843 1051 1054 28
844 1051 1055 28
845 1056 1057 28
846 1056 1058 28
847 1056 1059 28
848 1056 1060 28
849 1061 1062 28
850 1061 1063 28
851 1061 1064 28
852 1061 1065 28
853 1066 1067 28
854 1066 1068 28
855 1066 1069 28
856 1066 1070 28
857 1071 1072 28
858 1071 1073 28
859 1071 1074 28
860 1071 1075 28
861 1076 1077 28
862 1076 1078 28
863 1076 1079 28
864 1076 1080 28
865 1081 1082 28
866 1081 1083 28
867 1081 1084 28
868 1081 1085 28
869 1086 1087 28
870 1086 1088 28
871 1086 1089 28
872 1086 1090 28
873 1091 1092 28
874 1091 1093 28
875 1091 1094 28
876 1091 1095 28
877 1096 1097 28
878 1096 1098 28
879 1096 1099 28
880 1096 1100 28
881 1101 1102 28
882 1101 1103 28
883 1101 1104 28
884 1101 1105 28
885 1106 1107 28
886 1106 1108 28
887 1106 1109 28
888 1106 1110 28
889 1111 1112 28
890 1111 1113 28
891 1111 1114 28
892 1111 1115 28
893 1116 1117 28
894 1116 1118 28
895 1116 1119 28
896 1116 1120 28
897 1121 1122 28
898 1121 1123 28
899 1121 1124 28
900 1121 1125 28
901 1126 1127 28
902 1126 1128 28
903 1126 1129 28
904 1126 1130 28
905 1131 1132 28
906 1131 1133 28
907 1131 1134 28
908 1131 1135 28
909 1136 1137 28
910 1136 1138 28
911 1136 1139 28
912 1136 1140 28
913 1141 1142 28
914 1141 1143 28
915 1141 1144 28
916 1141 1145 28
917 1146 1147 28
918 1146 1148 28
919 1146 1149 28
920 1146 1150 28
921 1151 1152 28
922 1151 1153 28
923 1151 1154 28
924 1151 1155 28
925 1156 1157 28
926 1156 1158 28
927 1156 1159 28
928 1156 1160 28
929 1161 1162 28
930 1161 1163 28
931 1161 1164 28
932 1161 1165 28
933 1166 1167 28
934 1166 1168 28
935 1166 1169 28
936 1166 1170 28
937 1171 1172 28
938 1171 1173 28
939 1171 1174 28
940 1171 1175 28
941 1176 1177 28
942 1176 1178 28
943 1176 1179 28
944 1176 1180 28
945 1181 1182 28
946 1181 1183 28
947 1181 1184 28
948 1181 1185 28
949 1186 1187 28
950 1186 1188 28
951 1186 1189 28
952 1186 1190 28
953 1191 1192 28
954 1191 1193 28
955 1191 1194 28
956 1191 1195 28
957 1196 1197 28
958 1196 1198 28
959 1196 1199 28
960 1196 1200 28
961 1201 1202 28
962 1201 1203 28
963 1201 1204 28
964 1201 1205 28
965 1206 1207 28
966 1206 1208 28
967 1206 1209 28
968 1206 1210 28
969 1211 1212 28
970 1211 1213 28
971 1211 1214 28
972 1211 1215 28
973 1216 1217 28
974 1216 1218 28
975 1216 1219 28
976 1216 1220 28
977 1221 1222 28
978 1221 1223 28
979 1221 1224 28
980 1221 1225 28
981 1226 1227 28
982 1226 1228 28
983 1226 1229 28
984 1226 1230 28
985 1231 1232 28
986 1231 1233 28
987 1231 1234 28
988 1231 1235 28
989 1236 1237 28
990 1236 1238 28
991 1236 1239 28
992 1236 1240 28
993 1241 1242 28
994 1241 1243 28
995 1241 1244 28
996 1241 1245 28
997 1246 1247 28
998 1246 1248 28
999 1246 1249 28
1000 1246 1250 28
1001 1251 1252 28
1002 1251 1253 28
1003 1251 1254 28
1004 1251 1255 28
1005 1256 1257 28
1006 1256 1258 28
1007 1256 1259 28
1008 1256 1260 28
1009 1261 1262 28
1010 1261 1263 28
1011 1261 1264 28
1012 1261 1265 28
1013 1266 1267 28
1014 1266 1268 28
1015 1266 1269 28
1016 1266 1270 28
1017 1271 1272 28
1018 1271 1273 28
1019 1271 1274 28
1020 1271 1275 28
1021 1276 1277 28
1022 1276 1278 28
1023 1276 1279 28
1024 1276 1280 28
1025 1281 1282 28
1026 1281 1283 28
1027 1281 1284 28
1028 1281 1285 28
1029 1286 1287 28
1030 1286 1288 28
1031 1286 1289 28
1032 1286 1290 28
1033 1291 1292 28
1034 1291 1293 28
1035 1291 1294 28
1036 1291 1295 28
1037 1296 1297 28
1038 1296 1298 28
1039 1296 1299 28
1040 1296 1300 28
1041 1301 1302 28
1042 1301 1303 28
1043 1301 1304 28
1044 1301 1305 28
1045 1306 1307 28
1046 1306 1308 28
1047 1306 1309 28
1048 1306 1310 28
1049 1311 1312 28
1050 1311 1313 28
1051 1311 1314 28
1052 1311 1315 28
1053 1316 1317 28
1054 1316 1318 28
1055 1316 1319 28
1056 1316 1320 28
1057 1321 1322 28
1058 1321 1323 28
1059 1321 1324 28
1060 1321 1325 28
1061 1326 1327 28
1062 1326 1328 28
1063 1326 1329 28
1064 1326 1330 28
1065 1331 1332 28
1066 1331 1333 28
1067 1331 1334 28
1068 1331 1335 28
1069 1336 1337 28
1070 1336 1338 28
1071 1336 1339 28
1072 1336 1340 28
1073 1341 1342 28
1074 1341 1343 28
1075 1341 1344 28
1076 1341 1345 28
1077 1346 1347 28
1078 1346 1348 28
1079 1346 1349 28
1080 1346 1350 28
1081 1351 1352 28
1082 1351 1353 28
1083 1351 1354 28
1084 1351 1355 28
1085 1356 1357 28
1086 1356 1358 28
1087 1356 1359 28
1088 1356 1360 28
1089 1361 1362 28
1090 1361 1363 28
1091 1361 1364 28
1092 1361 1365 28
1093 1366 1367 28
1094 1366 1368 28
1095 1366 1369 28
1096 1366 1370 28
1097 1371 1372 28
1098 1371 1373 28
1099 1371 1374 28
1100 1371 1375 28
1101 1376 1377 28
1102 1376 1378 28
1103 1376 1379 28
1104 1376 1380 28
1105 1381 1382 28
1106 1381 1383 28
1107 1381 1384 28
1108 1381 1385 28
1109 1386 1387 28
1110 1386 1388 28
1111 1386 1389 28
1112 1386 1390 28
1113 1391 1392 28
1114 1391 1393 28
1115 1391 1394 28
1116 1391 1395 28
1117 1396 1397 28
1118 1396 1398 28
1119 1396 1399 28
1120 1396 1400 28
1121 1401 1402 28
1122 1401 1403 28
1123 1401 1404 28
1124 1401 1405 28
1125 1406 1407 28
1126 1406 1408 28
1127 1406 1409 28
1128 1406 1410 28
1129 1411 1412 28
1130 1411 1413 28
1131 1411 1414 28
1132 1411 1415 28
1133 1416 1417 28
1134 1416 1418 28
1135 1416 1419 28
1136 1416 1420 28
1137 1421 1422 28
1138 1421 1423 28
1139 1421 1424 28
1140 1421 1425 28
1141 1426 1427 28
1142 1426 1428 28
1143 1426 1429 28
1144 1426 1430 28
1145 1431 1432 28
1146 1431 1433 28
1147 1431 1434 28
1148 1431 1435 28
1149 1436 1437 28
1150 1436 1438 28
1151 1436 1439 28
1152 1436 1440 28
1153 1441 1442 28
1154 1441 1443 28
1155 1441 1444 28
1156 1441 1445 28
1157 1446 1447 28
1158 1446 1448 28
1159 1446 1449 28
1160 1446 1450 28
1161 1451 1452 28
1162 1451 1453 28
1163 1451 1454 28
1164 1451 1455 28
1165 1456 1457 28
1166 1456 1458 28
1167 1456 1459 28
1168 1456 1460 28
1169 1461 1462 28
1170 1461 1463 28
1171 1461 1464 28
1172 1461 1465 28
1173 1466 1467 28
1174 1466 1468 28
1175 1466 1469 28
1176 1466 1470 28
1177 1471 1472 28
1178 1471 1473 28
1179 1471 1474 28
1180 1471 1475 28
1181 1476 1477 28
1182 1476 1478 28
1183 1476 1479 28
1184 1476 1480 28
1185 1481 1482 28
1186 1481 1483 28
1187 1481 1484 28
1188 1481 1485 28
1189 1486 1487 28
1190 1486 1488 28
1191 1486 1489 28
1192 1486 1490 28
1193 1491 1492 28
1194 1491 1493 28
1195 1491 1494 28
1196 1491 1495 28
1197 1496 1497 28
1198 1496 1498 28
1199 1496 1499 28
1200 1496 1500 28
1201 1501 1502 28
1202 1501 1503 28
1203 1501 1504 28
1204 1501 1505 28
1205 1506 1507 28
1206 1506 1508 28
1207 1506 1509 28
1208 1506 1510 28
1209 1511 1512 28
1210 1511 1513 28
1211 1511 1514 28
1212 1511 1515 28
1213 1516 1517 28
1214 1516 1518 28
1215 1516 1519 28
1216 1516 1520 28
1217 1521 1522 28
1218 1521 1523 28
1219 1521 1524 28
1220 1521 1525 28
1221 1526 1527 28
1222 1526 1528 28
1223 1526 1529 28
1224 1526 1530 28
1225 1531 1532 28
1226 1531 1533 28
1227 1531 1534 28
1228 1531 1535 28
1229 1536 1537 28
1230 1536 1538 28
1231 1536 1539 28
1232 1536 1540 28
1233 1541 1542 28
1234 1541 1543 28
1235 1541 1544 28
1236 1541 1545 28
1237 1546 1547 28
1238 1546 1548 28
1239 1546 1549 28
1240 1546 1550 28
1241 1551 1552 28
1242 1551 1553 28
1243 1551 1554 28
1244 1551 1555 28
1245 1556 1557 28
1246 1556 1558 28
1247 1556 1559 28
1248 1556 1560 28
1249 1561 1562 28
1250 1561 1563 28
1251 1561 1564 28
1252 1561 1565 28
1253 1566 1567 28
1254 1566 1568 28
1255 1566 1569 28
1256 1566 1570 28
1257 1571 1572 28
1258 1571 1573 28
1259 1571 1574 28
1260 1571 1575 28
1261 1576 1577 28
1262 1576 1578 28
1263 1576 1579 28
1264 1576 1580 28
1265 1581 1582 28
1266 1581 1583 28
1267 1581 1584 28
1268 1581 1585 28
1269 1586 1587 28
1270 1586 1588 28
1271 1586 1589 28
1272 1586 1590 28
1273 1591 1592 28
1274 1591 1593 28
1275 1591 1594 28
1276 1591 1595 28
1277 1596 1597 28
1278 1596 1598 28
1279 1596 1599 28
1280 1596 1600 28
1281 1601 1602 28
1282 1601 1603 28
1283 1601 1604 28
1284 1601 1605 28
1285 1606 1607 28
1286 1606 1608 28
1287 1606 1609 28
1288 1606 1610 28
1289 1611 1612 28
1290 1611 1613 28
1291 1611 1614 28
1292 1611 1615 28
1293 1616 1617 28
1294 1616 1618 28
1295 1616 1619 28
1296 1616 1620 28
1297 1621 1622 28
1298 1621 1623 28
1299 1621 1624 28
1300 1621 1625 28
1301 1626 1627 28
1302 1626 1628 28
1303 1626 1629 28
1304 1626 1630 28
1305 1631 1632 28
1306 1631 1633 28
1307 1631 1634 28
1308 1631 1635 28
1309 1636 1637 28
1310 1636 1638 28
1311 1636 1639 28
1312 1636 1640 28
1313 1641 1642 28
1314 1641 1643 28
1315 1641 1644 28
1316 1641 1645 28
1317 1646 1647 28
1318 1646 1648 28
1319 1646 1649 28
1320 1646 1650 28
1321 1651 1652 28
1322 1651 1653 28
1323 1651 1654 28
1324 1651 1655 28
1325 1656 1657 28
1326 1656 1658 28
1327 1656 1659 28
1328 1656 1660 28
1329 1661 1662 28
1330 1661 1663 28
1331 1661 1664 28
1332 1661 1665 28
1333 1666 1667 28
1334 1666 1668 28
1335 1666 1669 28
1336 1666 1670 28
1337 1671 1672 28
1338 1671 1673 28
1339 1671 1674 28
1340 1671 1675 28
1341 1676 1677 28
1342 1676 1678 28
1343 1676 1679 28
1344 1676 1680 28
1345 1681 1682 28
1346 1681 1683 28
1347 1681 1684 28
1348 1681 1685 28
1349 1686 1687 28
1350 1686 1688 28
1351 1686 1689 28
1352 1686 1690 28
1353 1691 1692 28
1354 1691 1693 28
1355 1691 1694 28
1356 1691 1695 28
1357 1696 1697 28
1358 1696 1698 28
1359 1696 1699 28
1360 1696 1700 28
1361 1701 1702 28
1362 1701 1703 28
1363 1701 1704 28
1364 1701 1705 28
1365 1706 1707 28
1366 1706 1708 28
1367 1706 1709 28
1368 1706 1710 28
1369 1711 1712 28
1370 1711 1713 28
1371 1711 1714 28
1372 1711 1715 28
1373 1716 1717 28
1374 1716 1718 28
1375 1716 1719 28
1376 1716 1720 28
1377 1721 1722 28
1378 1721 1723 28
1379 1721 1724 28
1380 1721 1725 28
1381 1726 1727 28
1382 1726 1728 28
1383 1726 1729 28
1384 1726 1730 28
1385 1731 1732 28
1386 1731 1733 28
1387 1731 1734 28
1388 1731 1735 28
1389 1736 1737 28
1390 1736 1738 28
1391 1736 1739 28
1392 1736 1740 28
1393 1741 1742 28
1394 1741 1743 28
1395 1741 1744 28
1396 1741 1745 28
1397 1746 1747 28
1398 1746 1748 28
1399 1746 1749 28
1400 1746 1750 28
1401 1751 1752 28
1402 1751 1753 28
1403 1751 1754 28
1404 1751 1755 28
1405 1756 1757 28
1406 1756 1758 28
1407 1756 1759 28
1408 1756 1760 28
1409 1761 1762 28
1410 1761 1763 28
1411 1761 1764 28
1412 1761 1765 28
1413 1766 1767 28
1414 1766 1768 28
1415 1766 1769 28
1416 1766 1770 28
1417 1771 1772 28
1418 1771 1773 28
1419 1771 1774 28
1420 1771 1775 28
1421 1776 1777 28
1422 1776 1778 28
1423 1776 1779 28
1424 1776 1780 28
1425 1781 1782 28
1426 1781 1783 28
1427 1781 1784 28
1428 1781 1785 28
1429 1786 1787 28
1430 1786 1788 28
1431 1786 1789 28
1432 1786 1790 28
1433 1791 1792 28
1434 1791 1793 28
1435 1791 1794 28
1436 1791 1795 28
1437 1796 1797 28
1438 1796 1798 28
1439 1796 1799 28
1440 1796 1800 28
1441 1801 1802 28
1442 1801 1803 28
1443 1801 1804 28
1444 1801 1805 28
1445 1806 1807 28
1446 1806 1808 28
1447 1806 1809 28
1448 1806 1810 28
1449 1811 1812 28
1450 1811 1813 28
1451 1811 1814 28
1452 1811 1815 28
1453 1816 1817 28
1454 1816 1818 28
1455 1816 1819 28
1456 1816 1820 28
1457 1821 1822 28
1458 1821 1823 28
1459 1821 1824 28
1460 1821 1825 28
1461 1826 1827 28
1462 1826 1828 28
1463 1826 1829 28
1464 1826 1830 28
1465 1831 1832 28
1466 1831 1833 28
1467 1831 1834 28
1468 1831 1835 28
1469 1836 1837 28
1470 1836 1838 28
1471 1836 1839 28
1472 1836 1840 28
1473 1841 1842 28
1474 1841 1843 28
1475 1841 1844 28
1476 1841 1845 28
1477 1846 1847 28
1478 1846 1848 28
1479 1846 1849 28
1480 1846 1850 28
1481 1851 1852 28
1482 1851 1853 28
1483 1851 1854 28
1484 1851 1855 28
1485 1856 1857 28
1486 1856 1858 28
1487 1856 1859 28
1488 1856 1860 28
1489 1861 1862 28
1490 1861 1863 28
1491 1861 1864 28
1492 1861 1865 28
1493 1866 1867 28
1494 1866 1868 28
1495 1866 1869 28
1496 1866 1870 28
1497 1871 1872 28
1498 1871 1873 28
1499 1871 1874 28
1500 1871 1875 28
1501 1876 1877 28
1502 1876 1878 28
1503 1876 1879 28
1504 1876 1880 28
1505 1881 1882 28
1506 1881 1883 28
1507 1881 1884 28
1508 1881 1885 28
1509 1886 1887 28
1510 1886 1888 28
1511 1886 1889 28
1512 1886 1890 28
1513 1891 1892 28
1514 1891 1893 28
1515 1891 1894 28
1516 1891 1895 28
1517 1896 1897 28
1518 1896 1898 28
1519 1896 1899 28
1520 1896 1900 28
1521 1901 1902 28
1522 1901 1903 28
1523 1901 1904 28
1524 1901 1905 28
1525 1906 1907 28
1526 1906 1908 28
1527 1906 1909 28
1528 1906 1910 28
1529 1911 1912 28
1530 1911 1913 28
1531 1911 1914 28
1532 1911 1915 28
1533 1916 1917 28
1534 1916 1918 28
1535 1916 1919 28
1536 1916 1920 28
1537 1921 1922 28
1538 1921 1923 28
1539 1921 1924 28
1540 1921 1925 28
1541 1926 1927 28
1542 1926 1928 28
1543 1926 1929 28
1544 1926 1930 28
1545 1931 1932 28
1546 1931 1933 28
1547 1931 1934 28
1548 1931 1935 28
1549 1936 1937 28
1550 1936 1938 28
1551 1936 1939 28
1552 1936 1940 28
1553 1941 1942 28
1554 1941 1943 28
1555 1941 1944 28
1556 1941 1945 28
1557 1946 1947 28
1558 1946 1948 28
1559 1946 1949 28
1560 1946 1950 28
1561 1951 1952 28
1562 1951 1953 28
1563 1951 1954 28
1564 1951 1955 28
1565 1956 1957 28
1566 1956 1958 28
1567 1956 1959 28
1568 1956 1960 28
1569 1961 1962 28
1570 1961 1963 28
1571 1961 1964 28
1572 1961 1965 28
1573 1966 1967 28
1574 1966 1968 28
1575 1966 1969 28
1576 1966 1970 28
1577 1971 1972 28
1578 1971 1973 28
1579 1971 1974 28
1580 1971 1975 28
1581 1976 1977 28
1582 1976 1978 28
1583 1976 1979 28
1584 1976 1980 28
1585 1981 1982 28
1586 1981 1983 28
1587 1981 1984 28
1588 1981 1985 28
1589 1986 1987 28
1590 1986 1988 28
1591 1986 1989 28
1592 1986 1990 28
1593 1991 1992 28
1594 1991 1993 28
1595 1991 1994 28
1596 1991 1995 28
1597 1996 1997 28
1598 1996 1998 28
1599 1996 1999 28
1600 1996 2000 28
1601 2001 2002 28
1602 2001 2003 28
1603 2001 2004 28
1604 2001 2005 28
1605 2006 2007 28
1606 2006 2008 28
1607 2006 2009 28
1608 2006 2010 28
1609 2011 2012 28
1610 2011 2013 28
1611 2011 2014 28
1612 2011 2015 28
1613 2016 2017 28
1614 2016 2018 28
1615 2016 2019 28
1616 2016 2020 28
1617 2021 2022 28
1618 2021 2023 28
1619 2021 2024 28
1620 2021 2025 28
1621 2026 2027 28
1622 2026 2028 28
1623 2026 2029 28
1624 2026 2030 28
1625 2031 2032 28
1626 2031 2033 28
1627 2031 2034 28
1628 2031 2035 28
1629 2036 2037 28
1630 2036 2038 28
1631 2036 2039 28
1632 2036 2040 28
1633 2041 2042 28
1634 2041 2043 28
1635 2041 2044 28
1636 2041 2045 28
1637 2046 2047 28
1638 2046 2048 28
1639 2046 2049 28
1640 2046 2050 28
1641 2051 2052 28
1642 2051 2053 28
1643 2051 2054 28
1644 2051 2055 28
1645 2056 2057 28
1646 2056 2058 28
1647 2056 2059 28
1648 2056 2060 28
1649 2061 2062 28
1650 2061 2063 28
1651 2061 2064 28
1652 2061 2065 28
1653 2066 2067 28
1654 2066 2068 28
1655 2066 2069 28
1656 2066 2070 28
1657 2071 2072 28
1658 2071 2073 28
1659 2071 2074 28
1660 2071 2075 28
1661 2076 2077 28
1662 2076 2078 28
1663 2076 2079 28
1664 2076 2080 28
1665 2081 2082 28
1666 2081 2083 28
1667 2081 2084 28
1668 2081 2085 28
1669 2086 2087 28
1670 2086 2088 28
1671 2086 2089 28
1672 2086 2090 28
1673 2091 2092 28
1674 2091 2093 28
1675 2091 2094 28
1676 2091 2095 28
1677 2096 2097 28
1678 2096 2098 28
1679 2096 2099 28
1680 2096 2100 28
1681 2101 2102 28
1682 2101 2103 28
1683 2101 2104 28
1684 2101 2105 28
1685 2106 2107 28
1686 2106 2108 28
1687 2106 2109 28
1688 2106 2110 28
1689 2111 2112 28
1690 2111 2113 28
1691 2111 2114 28
1692 2111 2115 28
1693 2116 2117 28
1694 2116 2118 28
1695 2116 2119 28
1696 2116 2120 28
1697 2121 2122 28
1698 2121 2123 28
1699 2121 2124 28
1700 2121 2125 28
1701 2126 2127 28
1702 2126 2128 28
1703 2126 2129 28
1704 2126 2130 28
1705 2131 2132 28
1706 2131 2133 28
1707 2131 2134 28
1708 2131 2135 28
1709 2136 2137 28
1710 2136 2138 28
1711 2136 2139 28
1712 2136 2140 28
1713 2141 2142 28
1714 2141 2143 28
1715 2141 2144 28
1716 2141 2145 28
1717 2146 2147 28
1718 2146 2148 28
1719 2146 2149 28
1720 2146 2150 28
1721 2151 2152 28
1722 2151 2153 28
1723 2151 2154 28
1724 2151 2155 28
1725 2156 2157 28
1726 2156 2158 28
1727 2156 2159 28
1728 2156 2160 28
1729 2161 2162 28
1730 2161 2163 28
1731 2161 2164 28
1732 2161 2165 28
1733 2166 2167 28
1734 2166 2168 28
1735 2166 2169 28
1736 2166 2170 28
1737 2171 2172 28
1738 2171 2173 28
1739 2171 2174 28
1740 2171 2175 28
1741 2176 2177 28
1742 2176 2178 28
1743 2176 2179 28
1744 2176 2180 28
1745 2181 2182 28
1746 2181 2183 28
1747 2181 2184 28
1748 2181 2185 28
1749 2186 2187 28
1750 2186 2188 28
1751 2186 2189 28
1752 2186 2190 28
1753 2191 2192 28
1754 2191 2193 28
1755 2191 2194 28
1756 2191 2195 28
1757 2196 2197 28
1758 2196 2198 28
1759 2196 2199 28
1760 2196 2200 28
1761 2201 2202 28
1762 2201 2203 28
1763 2201 2204 28
1764 2201 2205 28
1765 2206 2207 28
1766 2206 2208 28
1767 2206 2209 28
1768 2206 2210 28
1769 2211 2212 28
1770 2211 2213 28
1771 2211 2214 28
1772 2211 2215 28
1773 2216 2217 28
1774 2216 2218 28
1775 2216 2219 28
1776 2216 2220 28
1777 2221 2222 28
1778 2221 2223 28
1779 2221 2224 28
1780 2221 2225 28
1781 2226 2227 28
1782 2226 2228 28
1783 2226 2229 28
1784 2226 2230 28
1785 2231 2232 28
1786 2231 2233 28
1787 2231 2234 28
1788 2231 2235 28
1789 2236 2237 28
1790 2236 2238 28
1791 2236 2239 28
1792 2236 2240 28
1793 2241 2242 28
1794 2241 2243 28
1795 2241 2244 28
1796 2241 2245 28
1797 2246 2247 28
1798 2246 2248 28
1799 2246 2249 28
1800 2246 2250 28
1801 2251 2252 28
1802 2251 2253 28
1803 2251 2254 28
1804 2251 2255 28
1805 2256 2257 28
1806 2256 2258 28
1807 2256 2259 28
1808 2256 2260 28
1809 2261 2262 28
1810 2261 2263 28
1811 2261 2264 28
1812 2261 2265 28
1813 2266 2267 28
1814 2266 2268 28
1815 2266 2269 28
1816 2266 2270 28
1817 2271 2272 28
1818 2271 2273 28
1819 2271 2274 28
1820 2271 2275 28
1821 2276 2277 28
1822 2276 2278 28
1823 2276 2279 28
1824 2276 2280 28
1825 2281 2282 28
1826 2281 2283 28
1827 2281 2284 28
1828 2281 2285 28
1829 2286 2287 28
1830 2286 2288 28
1831 2286 2289 28
1832 2286 2290 28
1833 2291 2292 28
1834 2291 2293 28
1835 2291 2294 28
1836 2291 2295 28
1837 2296 2297 28
1838 2296 2298 28
1839 2296 2299 28
1840 2296 2300 28
1841 2301 2302 28
1842 2301 2303 28
1843 2301 2304 28
1844 2301 2305 28
1845 2306 2307 28
1846 2306 2308 28
1847 2306 2309 28
1848 2306 2310 28
1849 2311 2312 28
1850 2311 2313 28
1851 2311 2314 28
1852 2311 2315 28
1853 2316 2317 28
1854 2316 2318 28
1855 2316 2319 28
1856 2316 2320 28
1857 2321 2322 28
1858 2321 2323 28
1859 2321 2324 28
1860 2321 2325 28
1861 2326 2327 28
1862 2326 2328 28
1863 2326 2329 28
1864 2326 2330 28
1865 2331 2332 28
1866 2331 2333 28
1867 2331 2334 28
1868 2331 2335 28
1869 2336 2337 28
1870 2336 2338 28
1871 2336 2339 28
1872 2336 2340 28
1873 2341 2342 28
1874 2341 2343 28
1875 2341 2344 28
1876 2341 2345 28
1877 2346 2347 28
1878 2346 2348 28
1879 2346 2349 28
1880 2346 2350 28
1881 2351 2352 28
1882 2351 2353 28
1883 2351 2354 28
1884 2351 2355 28
1885 2356 2357 28
1886 2356 2358 28
1887 2356 2359 28
1888 2356 2360 28
1889 2361 2362 28
1890 2361 2363 28
1891 2361 2364 28
1892 2361 2365 28
1893 2366 2367 28
1894 2366 2368 28
1895 2366 2369 28
1896 2366 2370 28
1897 2371 2372 28
1898 2371 2373 28
1899 2371 2374 28
1900 2371 2375 28
1901 2376 2377 28
1902 2376 2378 28
1903 2376 2379 28
1904 2376 2380 28
1905 2381 2382 28
1906 2381 2383 28
1907 2381 2384 28
1908 2381 2385 28
1909 2386 2387 28
1910 2386 2388 28
1911 2386 2389 28
1912 2386 2390 28
1913 2391 2392 28
1914 2391 2393 28
1915 2391 2394 28
1916 2391 2395 28
1917 2396 2397 28
1918 2396 2398 28
1919 2396 2399 28
1920 2396 2400 28
1921 2401 2402 28
1922 2401 2403 28
1923 2401 2404 28
1924 2401 2405 28
1925 2406 2407 28
1926 2406 2408 28
1927 2406 2409 28
1928 2406 2410 28
1929 2411 2412 28
1930 2411 2413 28
1931 2411 2414 28
1932 2411 2415 28
1933 2416 2417 28
1934 2416 2418 28
1935 2416 2419 28
1936 2416 2420 28
1937 2421 2422 28
1938 2421 2423 28
1939 2421 2424 28
1940 2421 2425 28
1941 2426 2427 28
1942 2426 2428 28
1943 2426 2429 28
1944 2426 2430 28
1945 2431 2432 28
1946 2431 2433 28
1947 2431 2434 28
1948 2431 2435 28
1949 2436 2437 28
1950 2436 2438 28
1951 2436 2439 28
1952 2436 2440 28
1953 2441 2442 28
1954 2441 2443 28
1955 2441 2444 28
1956 2441 2445 28
1957 2446 2447 28
1958 2446 2448 28
1959 2446 2449 28
1960 2446 2450 28
1961 2451 2452 28
1962 2451 2453 28
1963 2451 2454 28
1964 2451 2455 28
1965 2456 2457 28
1966 2456 2458 28
1967 2456 2459 28
1968 2456 2460 28
1969 2461 2462 28
1970 2461 2463 28
1971 2461 2464 28
1972 2461 2465 28
1973 2466 2467 28
1974 2466 2468 28
1975 2466 2469 28
1976 2466 2470 28
1977 2471 2472 28
1978 2471 2473 28
1979 2471 2474 28
1980 2471 2475 28
1981 2476 2477 28
1982 2476 2478 28
1983 2476 2479 28
1984 2476 2480 28
1985 2481 2482 28
1986 2481 2483 28
1987 2481 2484 28
1988 2481 2485 28
1989 2486 2487 28
1990 2486 2488 28
1991 2486 2489 28
1992 2486 2490 28
1993 2491 2492 28
1994 2491 2493 28
1995 2491 2494 28
1996 2491 2495 28
1997 2496 2497 28
1998 2496 2498 28
1999 2496 2499 28
2000 2496 2500 28
2001 2501 2502 28
2002 2501 2503 28
2003 2501 2504 28
2004 2501 2505 28
2005 2506 2507 28
2006 2506 2508 28
2007 2506 2509 28
2008 2506 2510 28
2009 2511 2512 28
2010 2511 2513 28
2011 2511 2514 28
2012 2511 2515 28
2013 2516 2517 28
2014 2516 2518 28
2015 2516 2519 28
2016 2516 2520 28
2017 2521 2522 28
2018 2521 2523 28
2019 2521 2524 28
2020 2521 2525 28
2021 2526 2527 28
2022 2526 2528 28
2023 2526 2529 28
2024 2526 2530 28
2025 2531 2532 28
2026 2531 2533 28
2027 2531 2534 28
2028 2531 2535 28
2029 2536 2537 28
2030 2536 2538 28
2031 2536 2539 28
2032 2536 2540 28
2033 2541 2542 28
2034 2541 2543 28
2035 2541 2544 28
2036 2541 2545 28
2037 2546 2547 28
2038 2546 2548 28
2039 2546 2549 28
2040 2546 2550 28
2041 2551 2552 28
2042 2551 2553 28
2043 2551 2554 28
2044 2551 2555 28
2045 2556 2557 28
2046 2556 2558 28
2047 2556 2559 28
2048 2556 2560 28
2049 2561 2562 28
2050 2561 2563 28
2051 2561 2564 28
2052 2561 2565 28
2053 2566 2567 28
2054 2566 2568 28
2055 2566 2569 28
2056 2566 2570 28
2057 2571 2572 28
2058 2571 2573 28
2059 2571 2574 28
2060 2571 2575 28
2061 2576 2577 28
2062 2576 2578 28
2063 2576 2579 28
2064 2576 2580 28
2065 2581 2582 28
2066 2581 2583 28
2067 2581 2584 28
2068 2581 2585 28
2069 2586 2587 28
2070 2586 2588 28
2071 2586 2589 28
2072 2586 2590 28
2073 2591 2592 28
2074 2591 2593 28
2075 2591 2594 28
2076 2591 2595 28
2077 2596 2597 28
2078 2596 2598 28
2079 2596 2599 28
2080 2596 2600 28
2081 2601 2602 28
2082 2601 2603 28
2083 2601 2604 28
2084 2601 2605 28
2085 2606 2607 28
2086 2606 2608 28
2087 2606 2609 28
2088 2606 2610 28
2089 2611 2612 28
2090 2611 2613 28
2091 2611 2614 28
2092 2611 2615 28
2093 2616 2617 28
2094 2616 2618 28
2095 2616 2619 28
2096 2616 2620 28
2097 2621 2622 28
2098 2621 2623 28
2099 2621 2624 28
2100 2621 2625 28
2101 2626 2627 28
2102 2626 2628 28
2103 2626 2629 28
2104 2626 2630 28
2105 2631 2632 28
2106 2631 2633 28
2107 2631 2634 28
2108 2631 2635 28
2109 2636 2637 28
2110 2636 2638 28
2111 2636 2639 28
2112 2636 2640 28
2113 2641 2642 28
2114 2641 2643 28
2115 2641 2644 28
2116 2641 2645 28
2117 2646 2647 28
2118 2646 2648 28
2119 2646 2649 28
2120 2646 2650 28
2121 2651 2652 28
2122 2651 2653 28
2123 2651 2654 28
2124 2651 2655 28
2125 2656 2657 28
2126 2656 2658 28
2127 2656 2659 28
2128 2656 2660 28
2129 2661 2662 28
2130 2661 2663 28
2131 2661 2664 28
2132 2661 2665 28
2133 2666 2667 28
2134 2666 2668 28
2135 2666 2669 28
2136 2666 2670 28
2137 2671 2672 28
2138 2671 2673 28
2139 2671 2674 28
2140 2671 2675 28
2141 2676 2677 28
2142 2676 2678 28
2143 2676 2679 28
2144 2676 2680 28
2145 2681 2682 28
2146 2681 2683 28
2147 2681 2684 28
2148 2681 2685 28
2149 2686 2687 28
2150 2686 2688 28
2151 2686 2689 28
2152 2686 2690 28
2153 2691 2692 28
2154 2691 2693 28
2155 2691 2694 28
2156 2691 2695 28
2157 2696 2697 28
2158 2696 2698 28
2159 2696 2699 28
2160 2696 2700 28
2161 2701 2702 28
2162 2701 2703 28
2163 2701 2704 28
2164 2701 2705 28
2165 2706 2707 28
2166 2706 2708 28
2167 2706 2709 28
2168 2706 2710 28
2169 2711 2712 28
2170 2711 2713 28
2171 2711 2714 28
2172 2711 2715 28
2173 2716 2717 28
2174 2716 2718 28
2175 2716 2719 28
2176 2716 2720 28
2177 2721 2722 28
2178 2721 2723 28
2179 2721 2724 28
2180 2721 2725 28
2181 2726 2727 28
2182 2726 2728 28
2183 2726 2729 28
2184 2726 2730 28
2185 2731 2732 28
2186 2731 2733 28
2187 2731 2734 28
2188 2731 2735 28
2189 2736 2737 28
2190 2736 2738 28
2191 2736 2739 28
2192 2736 2740 28
2193 2741 2742 28
2194 2741 2743 28
2195 2741 2744 28
2196 2741 2745 28
2197 2746 2747 28
2198 2746 2748 28
2199 2746 2749 28
2200 2746 2750 28
2201 2751 2752 28
2202 2751 2753 28
2203 2751 2754 28
2204 2751 2755 28
2205 2756 2757 28
2206 2756 2758 28
2207 2756 2759 28
2208 2756 2760 28
2209 2761 2762 28
2210 2761 2763 28
2211 2761 2764 28
2212 2761 2765 28
2213 2766 2767 28
2214 2766 2768 28
2215 2766 2769 28
2216 2766 2770 28
2217 2771 2772 28
2218 2771 2773 28
2219 2771 2774 28
2220 2771 2775 28
2221 2776 2777 28
2222 2776 2778 28
2223 2776 2779 28
2224 2776 2780 28
2225 2781 2782 28
2226 2781 2783 28
2227 2781 2784 28
2228 2781 2785 28
2229 2786 2787 28
2230 2786 2788 28
2231 2786 2789 28
2232 2786 2790 28
2233 2791 2792 28
2234 2791 2793 28
2235 2791 2794 28
2236 2791 2795 28
2237 2796 2797 28
2238 2796 2798 28
2239 2796 2799 28
2240 2796 2800 28
2241 2801 2802 28
2242 2801 2803 28
2243 2801 2804 28
2244 2801 2805 28
2245 2806 2807 28
2246 2806 2808 28
2247 2806 2809 28
2248 2806 2810 28
2249 2811 2812 28
2250 2811 2813 28
2251 2811 2814 28
2252 2811 2815 28
2253 2816 2817 28
2254 2816 2818 28
2255 2816 2819 28
2256 2816 2820 28
2257 2821 2822 28
2258 2821 2823 28
2259 2821 2824 28
2260 2821 2825 28
2261 2826 2827 28
2262 2826 2828 28
2263 2826 2829 28
2264 2826 2830 28
2265 2831 2832 28
2266 2831 2833 28
2267 2831 2834 28
2268 2831 2835 28
2269 2836 2837 28
2270 2836 2838 28
2271 2836 2839 28
2272 2836 2840 28
2273 2841 2842 28
2274 2841 2843 28
2275 2841 2844 28
2276 2841 2845 28
2277 2846 2847 28
2278 2846 2848 28
2279 2846 2849 28
2280 2846 2850 28
2281 2851 2852 28
2282 2851 2853 28
2283 2851 2854 28
2284 2851 2855 28
2285 2856 2857 28
2286 2856 2858 28
2287 2856 2859 28
2288 2856 2860 28
2289 2861 2862 28
2290 2861 2863 28
2291 2861 2864 28
2292 2861 2865 28
2293 2866 2867 28
2294 2866 2868 28
2295 2866 2869 28
2296 2866 2870 28
2297 2871 2872 28
2298 2871 2873 28
2299 2871 2874 28
2300 2871 2875 28
2301 2876 2877 28
2302 2876 2878 28
2303 2876 2879 28
2304 2876 2880 28
2305 2881 2882 28
2306 2881 2883 28
2307 2881 2884 28
2308 2881 2885 28
2309 2886 2887 28
2310 2886 2888 28
2311 2886 2889 28
2312 2886 2890 28
2313 2891 2892 28
2314 2891 2893 28
2315 2891 2894 28
2316 2891 2895 28
2317 2896 2897 28
2318 2896 2898 28
2319 2896 2899 28
2320 2896 2900 28
2321 2901 2902 28
2322 2901 2903 28
2323 2901 2904 28
2324 2901 2905 28
2325 2906 2907 28
2326 2906 2908 28
2327 2906 2909 28
2328 2906 2910 28
2329 2911 2912 28
2330 2911 2913 28
2331 2911 2914 28
2332 2911 2915 28
2333 2916 2917 28
2334 2916 2918 28
2335 2916 2919 28
2336 2916 2920 28
2337 2921 2922 28
2338 2921 2923 28
2339 2921 2924 28
2340 2921 2925 28
2341 2926 2927 28
2342 2926 2928 28
2343 2926 2929 28
2344 2926 2930 28
2345 2931 2932 28
2346 2931 2933 28
2347 2931 2934 28
2348 2931 2935 28
2349 2936 2937 28
2350 2936 2938 28
2351 2936 2939 28
2352 2936 2940 28
2353 2941 2942 28
2354 2941 2943 28
2355 2941 2944 28
2356 2941 2945 28
2357 2946 2947 28
2358 2946 2948 28
2359 2946 2949 28
2360 2946 2950 28
2361 2951 2952 28
2362 2951 2953 28
2363 2951 2954 28
2364 2951 2955 28
2365 2956 2957 28
2366 2956 2958 28
2367 2956 2959 28
2368 2956 2960 28
2369 2961 2962 28
2370 2961 2963 28
2371 2961 2964 28
2372 2961 2965 28
2373 2966 2967 28
2374 2966 2968 28
2375 2966 2969 28
2376 2966 2970 28
2377 2971 2972 28
2378 2971 2973 28
2379 2971 2974 28
2380 2971 2975 28
2381 2976 2977 28
2382 2976 2978 28
2383 2976 2979 28
2384 2976 2980 28
2385 2981 2982 28
2386 2981 2983 28
2387 2981 2984 28
2388 2981 2985 28
2389 2986 2987 28
2390 2986 2988 28
2391 2986 2989 28
2392 2986 2990 28
2393 2991 2992 28
2394 2991 2993 28
2395 2991 2994 28
2396 2991 2995 28
2397 2996 2997 28
2398 2996 2998 28
2399 2996 2999 28
2400 2996 3000 28
2401 3001 3002 28
2402 3001 3003 28
2403 3001 3004 28
2404 3001 3005 28
2405 3006 3007 28
2406 3006 3008 28
2407 3006 3009 28
2408 3006 3010 28
2409 3011 3012 28
2410 3011 3013 28
2411 3011 3014 28
2412 3011 3015 28
2413 3016 3017 28
2414 3016 3018 28
2415 3016 3019 28
2416 3016 3020 28
2417 3021 3022 28
2418 3021 3023 28
2419 3021 3024 28
2420 3021 3025 28
2421 3026 3027 28
2422 3026 3028 28
2423 3026 3029 28
2424 3026 3030 28
2425 3031 3032 28
2426 3031 3033 28
2427 3031 3034 28
2428 3031 3035 28
2429 3036 3037 28
2430 3036 3038 28
2431 3036 3039 28
2432 3036 3040 28
2433 3041 3042 28
2434 3041 3043 28
2435 3041 3044 28
2436 3041 3045 28
2437 3046 3047 28
2438 3046 3048 28
2439 3046 3049 28
2440 3046 3050 28
2441 3051 3052 28
2442 3051 3053 28
2443 3051 3054 28
2444 3051 3055 28
2445 3056 3057 28
2446 3056 3058 28
2447 3056 3059 28
2448 3056 3060 28
2449 3061 3062 28
2450 3061 3063 28
2451 3061 3064 28
2452 3061 3065 28
2453 3066 3067 28
2454 3066 3068 28
2455 3066 3069 28
2456 3066 3070 28
2457 3071 3072 28
2458 3071 3073 28
2459 3071 3074 28
2460 3071 3075 28
2461 3076 3077 28
2462 3076 3078 28
2463 3076 3079 28
2464 3076 3080 28
2465 3081 3082 28
2466 3081 3083 28
2467 3081 3084 28
2468 3081 3085 28
2469 3086 3087 28
2470 3086 3088 28
2471 3086 3089 28
2472 3086 3090 28
2473 3091 3092 28
2474 3091 3093 28
2475 3091 3094 28
2476 3091 3095 28
2477 3096 3097 28
2478 3096 3098 28
2479 3096 3099 28
2480 3096 3100 28
2481 3101 3102 28
2482 3101 3103 28
2483 3101 3104 28
2484 3101 3105 28
2485 3106 3107 28
2486 3106 3108 28
2487 3106 3109 28
2488 3106 3110 28
2489 3111 3112 28
2490 3111 3113 28
2491 3111 3114 28
2492 3111 3115 28
2493 3116 3117 28
2494 3116 3118 28
2495 3116 3119 28
2496 3116 3120 28
2497 3121 3122 28
2498 3121 3123 28
2499 3121 3124 28
2500 3121 3125 28
2501 3126 3127 28
2502 3126 3128 28
2503 3126 3129 28
2504 3126 3130 28
2505 3131 3132 28
2506 3131 3133 28
2507 3131 3134 28
2508 3131 3135 28
2509 3136 3137 28
2510 3136 3138 28
2511 3136 3139 28
2512 3136 3140 28
2513 3141 3142 28
2514 3141 3143 28
2515 3141 3144 28
2516 3141 3145 28
2517 3146 3147 28
2518 3146 3148 28
2519 3146 3149 28
2520 3146 3150 28
2521 3151 3152 28
2522 3151 3153 28
2523 3151 3154 28
2524 3151 3155 28
2525 3156 3157 28
2526 3156 3158 28
2527 3156 3159 28
2528 3156 3160 28
2529 3161 3162 28
2530 3161 3163 28
2531 3161 3164 28
2532 3161 3165 28
2533 3166 3167 28
2534 3166 3168 28
2535 3166 3169 28
2536 3166 3170 28
2537 3171 3172 28
2538 3171 3173 28
2539 3171 3174 28
2540 3171 3175 28
2541 3176 3177 28
2542 3176 3178 28
2543 3176 3179 28
2544 3176 3180 28
2545 3181 3182 28
2546 3181 3183 28
2547 3181 3184 28
2548 3181 3185 28
2549 3186 3187 28
2550 3186 3188 28
2551 3186 3189 28
2552 3186 3190 28
2553 3191 3192 28
2554 3191 3193 28
2555 3191 3194 28
2556 3191 3195 28
2557 3196 3197 28
2558 3196 3198 28
2559 3196 3199 28
2560 3196 3200 28
2561 3201 3202 28
2562 3201 3203 28
2563 3201 3204 28
2564 3201 3205 28
2565 3206 3207 28
2566 3206 3208 28
2567 3206 3209 28
2568 3206 3210 28
2569 3211 3212 28
2570 3211 3213 28
2571 3211 3214 28
2572 3211 3215 28
2573 3216 3217 28
2574 3216 3218 28
2575 3216 3219 28
2576 3216 3220 28
2577 3221 3222 28
2578 3221 3223 28
2579 3221 3224 28
2580 3221 3225 28
2581 3226 3227 28
2582 3226 3228 28
2583 3226 3229 28
2584 3226 3230 28
2585 3231 3232 28
2586 3231 3233 28
2587 3231 3234 28
2588 3231 3235 28
2589 3236 3237 28
2590 3236 3238 28
2591 3236 3239 28
2592 3236 3240 28
2593 3241 3242 28
2594 3241 3243 28
2595 3241 3244 28
2596 3241 3245 28
2597 3246 3247 28
2598 3246 3248 28
2599 3246 3249 28
2600 3246 3250 28
2601 3251 3252 28
2602 3251 3253 28
2603 3251 3254 28
2604 3251 3255 28
2605 3256 3257 28
2606 3256 3258 28
2607 3256 3259 28
2608 3256 3260 28
2609 3261 3262 28
2610 3261 3263 28
2611 3261 3264 28
2612 3261 3265 28
2613 3266 3267 28
2614 3266 3268 28
2615 3266 3269 28
2616 3266 3270 28
2617 3271 3272 28
2618 3271 3273 28
2619 3271 3274 28
2620 3271 3275 28
2621 3276 3277 28
2622 3276 3278 28
2623 3276 3279 28
2624 3276 3280 28
2625 3281 3282 28
2626 3281 3283 28
2627 3281 3284 28
2628 3281 3285 28
2629 3286 3287 28
2630 3286 3288 28
2631 3286 3289 28
2632 3286 3290 28
2633 3291 3292 28
2634 3291 3293 28
2635 3291 3294 28
2636 3291 3295 28
2637 3296 3297 28
2638 3296 3298 28
2639 3296 3299 28
2640 3296 3300 28
2641 3301 3302 28
2642 3301 3303 28
2643 3301 3304 28
2644 3301 3305 28
2645 3306 3307 28
2646 3306 3308 28
2647 3306 3309 28
2648 3306 3310 28
2649 3311 3312 28
2650 3311 3313 28
2651 3311 3314 28
2652 3311 3315 28
2653 3316 3317 28
2654 3316 3318 28
2655 3316 3319 28
2656 3316 3320 28
2657 3321 3322 28
2658 3321 3323 28
2659 3321 3324 28
2660 3321 3325 28
2661 3326 3327 28
2662 3326 3328 28
2663 3326 3329 28
2664 3326 3330 28
2665 3331 3332 28
2666 3331 3333 28
2667 3331 3334 28
2668 3331 3335 28
2669 3336 3337 28
2670 3336 3338 28
2671 3336 3339 28
2672 3336 3340 28
2673 3341 3342 28
2674 3341 3343 28
2675 3341 3344 28
2676 3341 3345 28
2677 3346 3347 28
2678 3346 3348 28
2679 3346 3349 28
2680 3346 3350 28
2681 3351 3352 28
2682 3351 3353 28
2683 3351 3354 28
2684 3351 3355 28
2685 3356 3357 28
2686 3356 3358 28
2687 3356 3359 28
2688 3356 3360 28
2689 3361 3362 28
2690 3361 3363 28
2691 3361 3364 28
2692 3361 3365 28
2693 3366 3367 28
2694 3366 3368 28
2695 3366 3369 28
2696 3366 3370 28
2697 3371 3372 28
2698 3371 3373 28
2699 3371 3374 28
2700 3371 3375 28
2701 3376 3377 28
2702 3376 3378 28
2703 3376 3379 28
2704 3376 3380 28
2705 3381 3382 28
2706 3381 3383 28
2707 3381 3384 28
2708 3381 3385 28
2709 3386 3387 28
2710 3386 3388 28
2711 3386 3389 28
2712 3386 3390 28
2713 3391 3392 28
2714 3391 3393 28
2715 3391 3394 28
2716 3391 3395 28
2717 3396 3397 28
2718 3396 3398 28
2719 3396 3399 28
2720 3396 3400 28
2721 3401 3402 28
2722 3401 3403 28
2723 3401 3404 28
2724 3401 3405 28
2725 3406 3407 28
2726 3406 3408 28
2727 3406 3409 28
2728 3406 3410 28
2729 3411 3412 28
2730 3411 3413 28
2731 3411 3414 28
2732 3411 3415 28
2733 3416 3417 28
2734 3416 3418 28
2735 3416 3419 28
2736 3416 3420 28
2737 3421 3422 28
2738 3421 3423 28
2739 3421 3424 28
2740 3421 3425 28
2741 3426 3427 28
2742 3426 3428 28
2743 3426 3429 28
2744 3426 3430 28
2745 3431 3432 28
2746 3431 3433 28
2747 3431 3434 28
2748 3431 3435 28
2749 3436 3437 28
2750 3436 3438 28
2751 3436 3439 28
2752 3436 3440 28
2753 3441 3442 28
2754 3441 3443 28
2755 3441 3444 28
2756 3441 3445 28
2757 3446 3447 28
2758 3446 3448 28
2759 3446 3449 28
2760 3446 3450 28
2761 3451 3452 28
2762 3451 3453 28
2763 3451 3454 28
2764 3451 3455 28
2765 3456 3457 28
2766 3456 3458 28
2767 3456 3459 28
2768 3456 3460 28
2769 3461 3462 28
2770 3461 3463 28
2771 3461 3464 28
2772 3461 3465 28
2773 3466 3467 28
2774 3466 3468 28
2775 3466 3469 28
2776 3466 3470 28
2777 3471 3472 28
2778 3471 3473 28
2779 3471 3474 28
2780 3471 3475 28
2781 3476 3477 28
2782 3476 3478 28
2783 3476 3479 28
2784 3476 3480 28
2785 3481 3482 28
2786 3481 3483 28
2787 3481 3484 28
2788 3481 3485 28
2789 3486 3487 28
2790 3486 3488 28
2791 3486 3489 28
2792 3486 3490 28
2793 3491 3492 28
2794 3491 3493 28
2795 3491 3494 28
2796 3491 3495 28
2797 3496 3497 28
2798 3496 3498 28
2799 3496 3499 28
2800 3496 3500 28
2801 3501 3502 28
2802 3501 3503 28
2803 3501 3504 28
2804 3501 3505 28
2805 3506 3507 28
2806 3506 3508 28
2807 3506 3509 28
2808 3506 3510 28
2809 3511 3512 28
2810 3511 3513 28
2811 3511 3514 28
2812 3511 3515 28
2813 3516 3517 28
2814 3516 3518 28
2815 3516 3519 28
2816 3516 3520 28
2817 3521 3522 28
2818 3521 3523 28
2819 3521 3524 28
2820 3521 3525 28
2821 3526 3527 28
2822 3526 3528 28
2823 3526 3529 28
2824 3526 3530 28
2825 3531 3532 28
2826 3531 3533 28
2827 3531 3534 28
2828 3531 3535 28
2829 3536 3537 28
2830 3536 3538 28
2831 3536 3539 28
2832 3536 3540 28
2833 3541 3542 28
2834 3541 3543 28
2835 3541 3544 28
2836 3541 3545 28
2837 3546 3547 28
2838 3546 3548 28
2839 3546 3549 28
2840 3546 3550 28
2841 3551 3552 28
2842 3551 3553 28
2843 3551 3554 28
2844 3551 3555 28
2845 3556 3557 28
2846 3556 3558 28
2847 3556 3559 28
2848 3556 3560 28
2849 3561 3562 28
2850 3561 3563 28
2851 3561 3564 28
2852 3561 3565 28
2853 3566 3567 28
2854 3566 3568 28
2855 3566 3569 28
2856 3566 3570 28
2857 3571 3572 28
2858 3571 3573 28
2859 3571 3574 28
2860 3571 3575 28
2861 3576 3577 28
2862 3576 3578 28
2863 3576 3579 28
2864 3576 3580 28
2865 3581 3582 28
2866 3581 3583 28
2867 3581 3584 28
2868 3581 3585 28
2869 3586 3587 28
2870 3586 3588 28
2871 3586 3589 28
2872 3586 3590 28
2873 3591 3592 28
2874 3591 3593 28
2875 3591 3594 28
2876 3591 3595 28
2877 3596 3597 28
2878 3596 3598 28
2879 3596 3599 28
2880 3596 3600 28
2881 3601 3602 28
2882 3601 3603 28
2883 3601 3604 28
2884 3601 3605 28
2885 3606 3607 28
2886 3606 3608 28
2887 3606 3609 28
2888 3606 3610 28
2889 3611 3612 28
2890 3611 3613 28
2891 3611 3614 28
2892 3611 3615 28
2893 3616 3617 28
2894 3616 3618 28
2895 3616 3619 28
2896 3616 3620 28
2897 3621 3622 28
2898 3621 3623 28
2899 3621 3624 28
2900 3621 3625 28
2901 3626 3627 28
2902 3626 3628 28
2903 3626 3629 28
2904 3626 3630 28
2905 3631 3632 28
2906 3631 3633 28
2907 3631 3634 28
2908 3631 3635 28
2909 3636 3637 28
2910 3636 3638 28
2911 3636 3639 28
2912 3636 3640 28
2913 3641 3642 28
2914 3641 3643 28
2915 3641 3644 28
2916 3641 3645 28
2917 3646 3647 28
2918 3646 3648 28
2919 3646 3649 28
2920 3646 3650 28
2921 3651 3652 28
2922 3651 3653 28
2923 3651 3654 28
2924 3651 3655 28
2925 3656 3657 28
2926 3656 3658 28
2927 3656 3659 28
2928 3656 3660 28
2929 3661 3662 28
2930 3661 3663 28
2931 3661 3664 28
2932 3661 3665 28
2933 3666 3667 28
2934 3666 3668 28
2935 3666 3669 28
2936 3666 3670 28
2937 3671 3672 28
2938 3671 3673 28
2939 3671 3674 28
2940 3671 3675 28
2941 3676 3677 28
2942 3676 3678 28
2943 3676 3679 28
2944 3676 3680 28
2945 3681 3682 28
2946 3681 3683 28
2947 3681 3684 28
2948 3681 3685 28
2949 3686 3687 28
2950 3686 3688 28
2951 3686 3689 28
2952 3686 3690 28
2953 3691 3692 28
2954 3691 3693 28
2955 3691 3694 28
2956 3691 3695 28
2957 3696 3697 28
2958 3696 3698 28
2959 3696 3699 28
2960 3696 3700 28
2961 3701 3702 28
2962 3701 3703 28
2963 3701 3704 28
2964 3701 3705 28
2965 3706 3707 28
2966 3706 3708 28
2967 3706 3709 28
2968 3706 3710 28
2969 3711 3712 28
2970 3711 3713 28
2971 3711 3714 28
2972 3711 3715 28
2973 3716 3717 28
2974 3716 3718 28
2975 3716 3719 28
2976 3716 3720 28
2977 3721 3722 28
2978 3721 3723 28
2979 3721 3724 28
2980 3721 3725 28
2981 3726 3727 28
2982 3726 3728 28
2983 3726 3729 28
2984 3726 3730 28
2985 3731 3732 28
2986 3731 3733 28
2987 3731 3734 28
2988 3731 3735 28
2989 3736 3737 28
2990 3736 3738 28
2991 3736 3739 28
2992 3736 3740 28
2993 3741 3742 28
2994 3741 3743 28
2995 3741 3744 28
2996 3741 3745 28
2997 3746 3747 28
2998 3746 3748 28
2999 3746 3749 28
3000 3746 3750 28
3001 3751 3752 28
3002 3751 3753 28
3003 3751 3754 28
3004 3751 3755 28
3005 3756 3757 28
3006 3756 3758 28
3007 3756 3759 28
3008 3756 3760 28
3009 3761 3762 28
3010 3761 3763 28
3011 3761 3764 28
3012 3761 3765 28
3013 3766 3767 28
3014 3766 3768 28
3015 3766 3769 28
3016 3766 3770 28
3017 3771 3772 28
3018 3771 3773 28
3019 3771 3774 28
3020 3771 3775 28
3021 3776 3777 28
3022 3776 3778 28
3023 3776 3779 28
3024 3776 3780 28
3025 3781 3782 28
3026 3781 3783 28
3027 3781 3784 28
3028 3781 3785 28
3029 3786 3787 28
3030 3786 3788 28
3031 3786 3789 28
3032 3786 3790 28
3033 3791 3792 28
3034 3791 3793 28
3035 3791 3794 28
3036 3791 3795 28
3037 3796 3797 28
3038 3796 3798 28
3039 3796 3799 28
3040 3796 3800 28
3041 3801 3802 28
3042 3801 3803 28
3043 3801 3804 28
3044 3801 3805 28
3045 3806 3807 28
3046 3806 3808 28
3047 3806 3809 28
3048 3806 3810 28
3049 3811 3812 28
3050 3811 3813 28
3051 3811 3814 28
3052 3811 3815 28
3053 3816 3817 28
3054 3816 3818 28
3055 3816 3819 28
3056 3816 3820 28
3057 3821 3822 28
3058 3821 3823 28
3059 3821 3824 28
3060 3821 3825 28
3061 3826 3827 28
3062 3826 3828 28
3063 3826 3829 28
3064 3826 3830 28
3065 3831 3832 28
3066 3831 3833 28
3067 3831 3834 28
3068 3831 3835 28
3069 3836 3837 28
3070 3836 3838 28
3071 3836 3839 28
3072 3836 3840 28
3073 3841 3842 28
3074 3841 3843 28
3075 3841 3844 28
3076 3841 3845 28
3077 3846 3847 28
3078 3846 3848 28
3079 3846 3849 28
3080 3846 3850 28
3081 3851 3852 28
3082 3851 3853 28
3083 3851 3854 28
3084 3851 3855 28
3085 3856 3857 28
3086 3856 3858 28
3087 3856 3859 28
3088 3856 3860 28
3089 3861 3862 28
3090 3861 3863 28
3091 3861 3864 28
3092 3861 3865 28
3093 3866 3867 28
3094 3866 3868 28
3095 3866 3869 28
3096 3866 3870 28
3097 3871 3872 28
3098 3871 3873 28
3099 3871 3874 28
3100 3871 3875 28
3101 3876 3877 28
3102 3876 3878 28
3103 3876 3879 28
3104 3876 3880 28
3105 3881 3882 28
3106 3881 3883 28
3107 3881 3884 28
3108 3881 3885 28
3109 3886 3887 28
3110 3886 3888 28
3111 3886 3889 28
3112 3886 3890 28
3113 3891 3892 28
3114 3891 3893 28
3115 3891 3894 28
3116 3891 3895 28
3117 3896 3897 28
3118 3896 3898 28
3119 3896 3899 28
3120 3896 3900 28
3121 3901 3902 28
3122 3901 3903 28
3123 3901 3904 28
3124 3901 3905 28
3125 3906 3907 28
3126 3906 3908 28
3127 3906 3909 28
3128 3906 3910 28
3129 3911 3912 28
3130 3911 3913 28
3131 3911 3914 28
3132 3911 3915 28
3133 3916 3917 28
3134 3916 3918 28
3135 3916 3919 28
3136 3916 3920 28
3137 3921 3922 28
3138 3921 3923 28
3139 3921 3924 28
3140 3921 3925 28
3141 3926 3927 28
3142 3926 3928 28
3143 3926 3929 28
3144 3926 3930 28
3145 3931 3932 28
3146 3931 3933 28
3147 3931 3934 28
3148 3931 3935 28
3149 3936 3937 28
3150 3936 3938 28
3151 3936 3939 28
3152 3936 3940 28
3153 3941 3942 28
3154 3941 3943 28
3155 3941 3944 28
3156 3941 3945 28
3157 3946 3947 28
3158 3946 3948 28
3159 3946 3949 28
3160 3946 3950 28
3161 3951 3952 28
3162 3951 3953 28
3163 3951 3954 28
3164 3951 3955 28
3165 3956 3957 28
3166 3956 3958 28
3167 3956 3959 28
3168 3956 3960 28
3169 3961 3962 28
3170 3961 3963 28
3171 3961 3964 28
3172 3961 3965 28
3173 3966 3967 28
3174 3966 3968 28
3175 3966 3969 28
3176 3966 3970 28
3177 3971 3972 28
3178 3971 3973 28
3179 3971 3974 28
3180 3971 3975 28
3181 3976 3977 28
3182 3976 3978 28
3183 3976 3979 28
3184 3976 3980 28
3185 3981 3982 28
3186 3981 3983 28
3187 3981 3984 28
3188 3981 3985 28
3189 3986 3987 28
3190 3986 3988 28
3191 3986 3989 28
3192 3986 3990 28
3193 3991 3992 28
3194 3991 3993 28
3195 3991 3994 28
3196 3991 3995 28
3197 3996 3997 28
3198 3996 3998 28
3199 3996 3999 28
3200 3996 4000 28
3201 4001 4002 28
3202 4001 4003 28
3203 4001 4004 28
3204 4001 4005 28
3205 4006 4007 28
3206 4006 4008 28
3207 4006 4009 28
3208 4006 4010 28
3209 4011 4012 28
3210 4011 4013 28
3211 4011 4014 28
3212 4011 4015 28
3213 4016 4017 28
3214 4016 4018 28
3215 4016 4019 28
3216 4016 4020 28
3217 4021 4022 28
3218 4021 4023 28
3219 4021 4024 28
3220 4021 4025 28
3221 4026 4027 28
3222 4026 4028 28
3223 4026 4029 28
3224 4026 4030 28
3225 4031 4032 28
3226 4031 4033 28
3227 4031 4034 28
3228 4031 4035 28
3229 4036 4037 28
3230 4036 4038 28
3231 4036 4039 28
3232 4036 4040 28
3233 4041 4042 28
3234 4041 4043 28
3235 4041 4044 28
3236 4041 4045 28
3237 4046 4047 28
3238 4046 4048 28
3239 4046 4049 28
3240 4046 4050 28
3241 4051 4052 28
3242 4051 4053 28
3243 4051 4054 28
3244 4051 4055 28
3245 4056 4057 28
3246 4056 4058 28
3247 4056 4059 28
3248 4056 4060 28
3249 4061 4062 28
3250 4061 4063 28
3251 4061 4064 28
3252 4061 4065 28
3253 4066 4067 28
3254 4066 4068 28
3255 4066 4069 28
3256 4066 4070 28
3257 4071 4072 28
3258 4071 4073 28
3259 4071 4074 28
3260 4071 4075 28
3261 4076 4077 28
3262 4076 4078 28
3263 4076 4079 28
3264 4076 4080 28
3265 4081 4082 28
3266 4081 4083 28
3267 4081 4084 28
3268 4081 4085 28
3269 4086 4087 28
3270 4086 4088 28
3271 4086 4089 28
3272 4086 4090 28
3273 4091 4092 28
3274 4091 4093 28
3275 4091 4094 28
3276 4091 4095 28
3277 4096 4097 28
3278 4096 4098 28
3279 4096 4099 28
3280 4096 4100 28
3281 4101 4102 28
3282 4101 4103 28
3283 4101 4104 28
3284 4101 4105 28
3285 4106 4107 28
3286 4106 4108 28
3287 4106 4109 28
3288 4106 4110 28
3289 4111 4112 28
3290 4111 4113 28
3291 4111 4114 28
3292 4111 4115 28
3293 4116 4117 28
3294 4116 4118 28
3295 4116 4119 28
3296 4116 4120 28
3297 4121 4122 28
3298 4121 4123 28
3299 4121 4124 28
3300 4121 4125 28
3301 4126 4127 28
3302 4126 4128 28
3303 4126 4129 28
3304 4126 4130 28
3305 4131 4132 28
3306 4131 4133 28
3307 4131 4134 28
3308 4131 4135 28
3309 4136 4137 28
3310 4136 4138 28
3311 4136 4139 28
3312 4136 4140 28
3313 4141 4142 28
3314 4141 4143 28
3315 4141 4144 28
3316 4141 4145 28
3317 4146 4147 28
3318 4146 4148 28
3319 4146 4149 28
3320 4146 4150 28
3321 4151 4152 28
3322 4151 4153 28
3323 4151 4154 28
3324 4151 4155 28
3325 4156 4157 28
3326 4156 4158 28
3327 4156 4159 28
3328 4156 4160 28
3329 4161 4162 28
3330 4161 4163 28
3331 4161 4164 28
3332 4161 4165 28
3333 4166 4167 28
3334 4166 4168 28
3335 4166 4169 28
3336 4166 4170 28
3337 4171 4172 28
3338 4171 4173 28
3339 4171 4174 28
3340 4171 4175 28
3341 4176 4177 28
3342 4176 4178 28
3343 4176 4179 28
3344 4176 4180 28
3345 4181 4182 28
3346 4181 4183 28
3347 4181 4184 28
3348 4181 4185 28
3349 4186 4187 28
3350 4186 4188 28
3351 4186 4189 28
3352 4186 4190 28
3353 4191 4192 28
3354 4191 4193 28
3355 4191 4194 28
3356 4191 4195 28
3357 4196 4197 28
3358 4196 4198 28
3359 4196 4199 28
3360 4196 4200 28
3361 4201 4202 28
3362 4201 4203 28
3363 4201 4204 28
3364 4201 4205 28
3365 4206 4207 28
3366 4206 4208 28
3367 4206 4209 28
3368 4206 4210 28
3369 4211 4212 28
3370 4211 4213 28
3371 4211 4214 28
3372 4211 4215 28
3373 4216 4217 28
3374 4216 4218 28
3375 4216 4219 28
3376 4216 4220 28
3377 4221 4222 28
3378 4221 4223 28
3379 4221 4224 28
3380 4221 4225 28
3381 4226 4227 28
3382 4226 4228 28
3383 4226 4229 28
3384 4226 4230 28
3385 4231 4232 28
3386 4231 4233 28
3387 4231 4234 28
3388 4231 4235 28
3389 4236 4237 28
3390 4236 4238 28
3391 4236 4239 28
3392 4236 4240 28
3393 4241 4242 28
3394 4241 4243 28
3395 4241 4244 28
3396 4241 4245 28
3397 4246 4247 28
3398 4246 4248 28
3399 4246 4249 28
3400 4246 4250 28
3401 4251 4252 28
3402 4251 4253 28
3403 4251 4254 28
3404 4251 4255 28
3405 4256 4257 28
3406 4256 4258 28
3407 4256 4259 28
3408 4256 4260 28
3409 4261 4262 28
3410 4261 4263 28
3411 4261 4264 28
3412 4261 4265 28
3413 4266 4267 28
3414 4266 4268 28
3415 4266 4269 28
3416 4266 4270 28
3417 4271 4272 28
3418 4271 4273 28
3419 4271 4274 28
3420 4271 4275 28
3421 4276 4277 28
3422 4276 4278 28
3423 4276 4279 28
3424 4276 4280 28
3425 4281 4282 28
3426 4281 4283 28
3427 4281 4284 28
3428 4281 4285 28
3429 4286 4287 28
3430 4286 4288 28
3431 4286 4289 28
3432 4286 4290 28
3433 4291 4292 28
3434 4291 4293 28
3435 4291 4294 28
3436 4291 4295 28
3437 4296 4297 28
3438 4296 4298 28
3439 4296 4299 28
3440 4296 4300 28
3441 4301 4302 28
3442 4301 4303 28
3443 4301 4304 28
3444 4301 4305 28
3445 4306 4307 28
3446 4306 4308 28
3447 4306 4309 28
3448 4306 4310 28
3449 4311 4312 28
3450 4311 4313 28
3451 4311 4314 28
3452 4311 4315 28
3453 4316 4317 28
3454 4316 4318 28
3455 4316 4319 28
3456 4316 4320 28
3457 4321 4322 28
3458 4321 4323 28
3459 4321 4324 28
3460 4321 4325 28
3461 4326 4327 28
3462 4326 4328 28
3463 4326 4329 28
3464 4326 4330 28
3465 4331 4332 28
3466 4331 4333 28
3467 4331 4334 28
3468 4331 4335 28
3469 4336 4337 28
3470 4336 4338 28
3471 4336 4339 28
3472 4336 4340 28
3473 4341 4342 28
3474 4341 4343 28
3475 4341 4344 28
3476 4341 4345 28
3477 4346 4347 28
3478 4346 4348 28
3479 4346 4349 28
3480 4346 4350 28
3481 4351 4352 28
3482 4351 4353 28
3483 4351 4354 28
3484 4351 4355 28
3485 4356 4357 28
3486 4356 4358 28
3487 4356 4359 28
3488 4356 4360 28
3489 4361 4362 28
3490 4361 4363 28
3491 4361 4364 28
3492 4361 4365 28
3493 4366 4367 28
3494 4366 4368 28
3495 4366 4369 28
3496 4366 4370 28
3497 4371 4372 28
3498 4371 4373 28
3499 4371 4374 28
3500 4371 4375 28
3501 4376 4377 28
3502 4376 4378 28
3503 4376 4379 28
3504 4376 4380 28
3505 4381 4382 28
3506 4381 4383 28
3507 4381 4384 28
3508 4381 4385 28
3509 4386 4387 28
3510 4386 4388 28
3511 4386 4389 28
3512 4386 4390 28
3513 4391 4392 28
3514 4391 4393 28
3515 4391 4394 28
3516 4391 4395 28
3517 4396 4397 28
3518 4396 4398 28
3519 4396 4399 28
3520 4396 4400 28
3521 4401 4402 28
3522 4401 4403 28
3523 4401 4404 28
3524 4401 4405 28
3525 4406 4407 28
3526 4406 4408 28
3527 4406 4409 28
3528 4406 4410 28
3529 4411 4412 28
3530 4411 4413 28
3531 4411 4414 28
3532 4411 4415 28
3533 4416 4417 28
3534 4416 4418 28
3535 4416 4419 28
3536 4416 4420 28
3537 4421 4422 28
3538 4421 4423 28
3539 4421 4424 28
3540 4421 4425 28
3541 4426 4427 28
3542 4426 4428 28
3543 4426 4429 28
3544 4426 4430 28
3545 4431 4432 28
3546 4431 4433 28
3547 4431 4434 28
3548 4431 4435 28
3549 4436 4437 28
3550 4436 4438 28
3551 4436 4439 28
3552 4436 4440 28
3553 4441 4442 28
3554 4441 4443 28
3555 4441 4444 28
3556 4441 4445 28
3557 4446 4447 28
3558 4446 4448 28
3559 4446 4449 28
3560 4446 4450 28
3561 4451 4452 28
3562 4451 4453 28
3563 4451 4454 28
3564 4451 4455 28
3565 4456 4457 28
3566 4456 4458 28
3567 4456 4459 28
3568 4456 4460 28
3569 4461 4462 28
3570 4461 4463 28
3571 4461 4464 28
3572 4461 4465 28
3573 4466 4467 28
3574 4466 4468 28
3575 4466 4469 28
3576 4466 4470 28
3577 4471 4472 28
3578 4471 4473 28
3579 4471 4474 28
3580 4471 4475 28
3581 4476 4477 28
3582 4476 4478 28
3583 4476 4479 28
3584 4476 4480 28
3585 4481 4482 28
3586 4481 4483 28
3587 4481 4484 28
3588 4481 4485 28
3589 4486 4487 28
3590 4486 4488 28
3591 4486 4489 28
3592 4486 4490 28
3593 4491 4492 28
3594 4491 4493 28
3595 4491 4494 28
3596 4491 4495 28
3597 4496 4497 28
3598 4496 4498 28
3599 4496 4499 28
3600 4496 4500 28
3601 4501 4502 28
3602 4501 4503 28
3603 4501 4504 28
3604 4501 4505 28
3605 4506 4507 28
3606 4506 4508 28
3607 4506 4509 28
3608 4506 4510 28
3609 4511 4512 28
3610 4511 4513 28
3611 4511 4514 28
3612 4511 4515 28
3613 4516 4517 28
3614 4516 4518 28
3615 4516 4519 28
3616 4516 4520 28
3617 4521 4522 28
3618 4521 4523 28
3619 4521 4524 28
3620 4521 4525 28
3621 4526 4527 28
3622 4526 4528 28
3623 4526 4529 28
3624 4526 4530 28
3625 4531 4532 28
3626 4531 4533 28
3627 4531 4534 28
3628 4531 4535 28
3629 4536 4537 28
3630 4536 4538 28
3631 4536 4539 28
3632 4536 4540 28
3633 4541 4542 28
3634 4541 4543 28
3635 4541 4544 28
3636 4541 4545 28
3637 4546 4547 28
3638 4546 4548 28
3639 4546 4549 28
3640 4546 4550 28
3641 4551 4552 28
3642 4551 4553 28
3643 4551 4554 28
3644 4551 4555 28
3645 4556 4557 28
3646 4556 4558 28
3647 4556 4559 28
3648 4556 4560 28
3649 4561 4562 28
3650 4561 4563 28
3651 4561 4564 28
3652 4561 4565 28
3653 4566 4567 28
3654 4566 4568 28
3655 4566 4569 28
3656 4566 4570 28
3657 4571 4572 28
3658 4571 4573 28
3659 4571 4574 28
3660 4571 4575 28
3661 4576 4577 28
3662 4576 4578 28
3663 4576 4579 28
3664 4576 4580 28
3665 4581 4582 28
3666 4581 4583 28
3667 4581 4584 28
3668 4581 4585 28
3669 4586 4587 28
3670 4586 4588 28
3671 4586 4589 28
3672 4586 4590 28
3673 4591 4592 28
3674 4591 4593 28
3675 4591 4594 28
3676 4591 4595 28
3677 4596 4597 28
3678 4596 4598 28
3679 4596 4599 28
3680 4596 4600 28
3681 4601 4602 28
3682 4601 4603 28
3683 4601 4604 28
3684 4601 4605 28
3685 4606 4607 28
3686 4606 4608 28
3687 4606 4609 28
3688 4606 4610 28
3689 4611 4612 28
3690 4611 4613 28
3691 4611 4614 28
3692 4611 4615 28
3693 4616 4617 28
3694 4616 4618 28
3695 4616 4619 28
3696 4616 4620 28
3697 4621 4622 28
3698 4621 4623 28
3699 4621 4624 28
3700 4621 4625 28
3701 4626 4627 28
3702 4626 4628 28
3703 4626 4629 28
3704 4626 4630 28
3705 4631 4632 28
3706 4631 4633 28
3707 4631 4634 28
3708 4631 4635 28
3709 4636 4637 28
3710 4636 4638 28
3711 4636 4639 28
3712 4636 4640 28
3713 4641 4642 28
3714 4641 4643 28
3715 4641 4644 28
3716 4641 4645 28
3717 4646 4647 28
3718 4646 4648 28
3719 4646 4649 28
3720 4646 4650 28
3721 4651 4652 28
3722 4651 4653 28
3723 4651 4654 28
3724 4651 4655 28
3725 4656 4657 28
3726 4656 4658 28
3727 4656 4659 28
3728 4656 4660 28
3729 4661 4662 28
3730 4661 4663 28
3731 4661 4664 28
3732 4661 4665 28
3733 4666 4667 28
3734 4666 4668 28
3735 4666 4669 28
3736 4666 4670 28
3737 4671 4672 28
3738 4671 4673 28
3739 4671 4674 28
3740 4671 4675 28
3741 4676 4677 28
3742 4676 4678 28
3743 4676 4679 28
3744 4676 4680 28
3745 4681 4682 28
3746 4681 4683 28
3747 4681 4684 28
3748 4681 4685 28
3749 4686 4687 28
3750 4686 4688 28
3751 4686 4689 28
3752 4686 4690 28
3753 4691 4692 28
3754 4691 4693 28
3755 4691 4694 28
3756 4691 4695 28
3757 4696 4697 28
3758 4696 4698 28
3759 4696 4699 28
3760 4696 4700 28
3761 4701 4702 28
3762 4701 4703 28
3763 4701 4704 28
3764 4701 4705 28
3765 4706 4707 28
3766 4706 4708 28
3767 4706 4709 28
3768 4706 4710 28
3769 4711 4712 28
3770 4711 4713 28
3771 4711 4714 28
3772 4711 4715 28
3773 4716 4717 28
3774 4716 4718 28
3775 4716 4719 28
3776 4716 4720 28
3777 4721 4722 28
3778 4721 4723 28
3779 4721 4724 28
3780 4721 4725 28
3781 4726 4727 28
3782 4726 4728 28
3783 4726 4729 28
3784 4726 4730 28
3785 4731 4732 28
3786 4731 4733 28
3787 4731 4734 28
3788 4731 4735 28
3789 4736 4737 28
3790 4736 4738 28
3791 4736 4739 28
3792 4736 4740 28
3793 4741 4742 28
3794 4741 4743 28
3795 4741 4744 28
3796 4741 4745 28
3797 4746 4747 28
3798 4746 4748 28
3799 4746 4749 28
3800 4746 4750 28
3801 4751 4752 28
3802 4751 4753 28
3803 4751 4754 28
3804 4751 4755 28
3805 4756 4757 28
3806 4756 4758 28
3807 4756 4759 28
3808 4756 4760 28
3809 4761 4762 28
3810 4761 4763 28
3811 4761 4764 28
3812 4761 4765 28
3813 4766 4767 28
3814 4766 4768 28
3815 4766 4769 28
3816 4766 4770 28
3817 4771 4772 28
3818 4771 4773 28
3819 4771 4774 28
3820 4771 4775 28
3821 4776 4777 28
3822 4776 4778 28
3823 4776 4779 28
3824 4776 4780 28
3825 4781 4782 28
3826 4781 4783 28
3827 4781 4784 28
3828 4781 4785 28
3829 4786 4787 28
3830 4786 4788 28
3831 4786 4789 28
3832 4786 4790 28
3833 4791 4792 28
3834 4791 4793 28
3835 4791 4794 28
3836 4791 4795 28
3837 4796 4797 28
3838 4796 4798 28
3839 4796 4799 28
3840 4796 4800 28
3841 4801 4802 28
3842 4801 4803 28
3843 4801 4804 28
3844 4801 4805 28
3845 4806 4807 28
3846 4806 4808 28
3847 4806 4809 28
3848 4806 4810 28
3849 4811 4812 28
3850 4811 4813 28
3851 4811 4814 28
3852 4811 4815 28
3853 4816 4817 28
3854 4816 4818 28
3855 4816 4819 28
3856 4816 4820 28
3857 4821 4822 28
3858 4821 4823 28
3859 4821 4824 28
3860 4821 4825 28
3861 4826 4827 28
3862 4826 4828 28
3863 4826 4829 28
3864 4826 4830 28
3865 4831 4832 28
3866 4831 4833 28
3867 4831 4834 28
3868 4831 4835 28
3869 4836 4837 28
3870 4836 4838 28
3871 4836 4839 28
3872 4836 4840 28
3873 4841 4842 28
3874 4841 4843 28
3875 4841 4844 28
3876 4841 4845 28
3877 4846 4847 28
3878 4846 4848 28
3879 4846 4849 28
3880 4846 4850 28
3881 4851 4852 28
3882 4851 4853 28
3883 4851 4854 28
3884 4851 4855 28
3885 4856 4857 28
3886 4856 4858 28
3887 4856 4859 28
3888 4856 4860 28
3889 4861 4862 28
3890 4861 4863 28
3891 4861 4864 28
3892 4861 4865 28
3893 4866 4867 28
3894 4866 4868 28
3895 4866 4869 28
3896 4866 4870 28
3897 4871 4872 28
3898 4871 4873 28
3899 4871 4874 28
3900 4871 4875 28
3901 4876 4877 28
3902 4876 4878 28
3903 4876 4879 28
3904 4876 4880 28
3905 4881 4882 28
3906 4881 4883 28
3907 4881 4884 28
3908 4881 4885 28
3909 4886 4887 28
3910 4886 4888 28
3911 4886 4889 28
3912 4886 4890 28
3913 4891 4892 28
3914 4891 4893 28
3915 4891 4894 28
3916 4891 4895 28
3917 4896 4897 28
3918 4896 4898 28
3919 4896 4899 28
3920 4896 4900 28
3921 4901 4902 28
3922 4901 4903 28
3923 4901 4904 28
3924 4901 4905 28
3925 4906 4907 28
3926 4906 4908 28
3927 4906 4909 28
3928 4906 4910 28
3929 4911 4912 28
3930 4911 4913 28
3931 4911 4914 28
3932 4911 4915 28
3933 4916 4917 28
3934 4916 4918 28
3935 4916 4919 28
3936 4916 4920 28
3937 4921 4922 28
3938 4921 4923 28
3939 4921 4924 28
3940 4921 4925 28
3941 4926 4927 28
3942 4926 4928 28
3943 4926 4929 28
3944 4926 4930 28
3945 4931 4932 28
3946 4931 4933 28
3947 4931 4934 28
3948 4931 4935 28
3949 4936 4937 28
3950 4936 4938 28
3951 4936 4939 28
3952 4936 4940 28
3953 4941 4942 28
3954 4941 4943 28
3955 4941 4944 28
3956 4941 4945 28
3957 4946 4947 28
3958 4946 4948 28
3959 4946 4949 28
3960 4946 4950 28
3961 4951 4952 28
3962 4951 4953 28
3963 4951 4954 28
3964 4951 4955 28
3965 4956 4957 28
3966 4956 4958 28
3967 4956 4959 28
3968 4956 4960 28
3969 4961 4962 28
3970 4961 4963 28
3971 4961 4964 28
3972 4961 4965 28
3973 4966 4967 28
3974 4966 4968 28
3975 4966 4969 28
3976 4966 4970 28
3977 4971 4972 28
3978 4971 4973 28
3979 4971 4974 28
3980 4971 4975 28
3981 4976 4977 28
3982 4976 4978 28
3983 4976 4979 28
3984 4976 4980 28
3985 4981 4982 28
3986 4981 4983 28
3987 4981 4984 28
3988 4981 4985 28
3989 4986 4987 28
3990 4986 4988 28
3991 4986 4989 28
3992 4986 4990 28
3993 4991 4992 28
3994 4991 4993 28
3995 4991 4994 28
3996 4991 4995 28
3997 4996 4997 28
3998 4996 4998 28
3999 4996 4999 28
4000 4996 5000 28
4001 5001 5002 28
4002 5001 5003 28
4003 5001 5004 28
4004 5001 5005 28
4005 5006 5007 28
4006 5006 5008 28
4007 5006 5009 28
4008 5006 5010 28
4009 5011 5012 28
4010 5011 5013 28
4011 5011 5014 28
4012 5011 5015 28
4013 5016 5017 28
4014 5016 5018 28
4015 5016 5019 28
4016 5016 5020 28
4017 5021 5022 28
4018 5021 5023 28
4019 5021 5024 28
4020 5021 5025 28
4021 5026 5027 28
4022 5026 5028 28
4023 5026 5029 28
4024 5026 5030 28
4025 5031 5032 28
4026 5031 5033 28
4027 5031 5034 28
4028 5031 5035 28
4029 5036 5037 28
4030 5036 5038 28
4031 5036 5039 28
4032 5036 5040 28
4033 5041 5042 28
4034 5041 5043 28
4035 5041 5044 28
4036 5041 5045 28
4037 5046 5047 28
4038 5046 5048 28
4039 5046 5049 28
4040 5046 5050 28
4041 5051 5052 28
4042 5051 5053 28
4043 5051 5054 28
4044 5051 5055 28
4045 5056 5057 28
4046 5056 5058 28
4047 5056 5059 28
4048 5056 5060 28
4049 5061 5062 28
4050 5061 5063 28
4051 5061 5064 28
4052 5061 5065 28
4053 5066 5067 28
4054 5066 5068 28
4055 5066 5069 28
4056 5066 5070 28
4057 5071 5072 28
4058 5071 5073 28
4059 5071 5074 28
4060 5071 5075 28
4061 5076 5077 28
4062 5076 5078 28
4063 5076 5079 28
4064 5076 5080 28
4065 5081 5082 28
4066 5081 5083 28
4067 5081 5084 28
4068 5081 5085 28
4069 5086 5087 28
4070 5086 5088 28
4071 5086 5089 28
4072 5086 5090 28
4073 5091 5092 28
4074 5091 5093 28
4075 5091 5094 28
4076 5091 5095 28
4077 5096 5097 28
4078 5096 5098 28
4079 5096 5099 28
4080 5096 5100 28
4081 5101 5102 28
4082 5101 5103 28
4083 5101 5104 28
4084 5101 5105 28
4085 5106 5107 28
4086 5106 5108 28
4087 5106 5109 28
4088 5106 5110 28
4089 5111 5112 28
4090 5111 5113 28
4091 5111 5114 28
4092 5111 5115 28
4093 5116 5117 28
4094 5116 5118 28
4095 5116 5119 28
4096 5116 5120 28
4097 5121 5122 28
4098 5121 5123 28
4099 5121 5124 28
4100 5121 5125 28
4101 5126 5127 28
4102 5126 5128 28
4103 5126 5129 28
4104 5126 5130 28
4105 5131 5132 28
4106 5131 5133 28
4107 5131 5134 28
4108 5131 5135 28
4109 5136 5137 28
4110 5136 5138 28
4111 5136 5139 28
4112 5136 5140 28
4113 5141 5142 28
4114 5141 5143 28
4115 5141 5144 28
4116 5141 5145 28
4117 5146 5147 28
4118 5146 5148 28
4119 5146 5149 28
4120 5146 5150 28
4121 5151 5152 28
4122 5151 5153 28
4123 5151 5154 28
4124 5151 5155 28
4125 5156 5157 28
4126 5156 5158 28
4127 5156 5159 28
4128 5156 5160 28
4129 5161 5162 28
4130 5161 5163 28
4131 5161 5164 28
4132 5161 5165 28
4133 5166 5167 28
4134 5166 5168 28
4135 5166 5169 28
4136 5166 5170 28
4137 5171 5172 28
4138 5171 5173 28
4139 5171 5174 28
4140 5171 5175 28
4141 5176 5177 28
4142 5176 5178 28
4143 5176 5179 28
4144 5176 5180 28
4145 5181 5182 28
4146 5181 5183 28
4147 5181 5184 28
4148 5181 5185 28
4149 5186 5187 28
4150 5186 5188 28
4151 5186 5189 28
4152 5186 5190 28
4153 5191 5192 28
4154 5191 5193 28
4155 5191 5194 28
4156 5191 5195 28
4157 5196 5197 28
4158 5196 5198 28
4159 5196 5199 28
4160 5196 5200 28
4161 5201 5202 28
4162 5201 5203 28
4163 5201 5204 28
4164 5201 5205 28
4165 5206 5207 28
4166 5206 5208 28
4167 5206 5209 28
4168 5206 5210 28
4169 5211 5212 28
4170 5211 5213 28
4171 5211 5214 28
4172 5211 5215 28
4173 5216 5217 28
4174 5216 5218 28
4175 5216 5219 28
4176 5216 5220 28
4177 5221 5222 28
4178 5221 5223 28
4179 5221 5224 28
4180 5221 5225 28
4181 5226 5227 28
4182 5226 5228 28
4183 5226 5229 28
4184 5226 5230 28
4185 5231 5232 28
4186 5231 5233 28
4187 5231 5234 28
4188 5231 5235 28
4189 5236 5237 28
4190 5236 5238 28
4191 5236 5239 28
4192 5236 5240 28
4193 5241 5242 28
4194 5241 5243 28
4195 5241 5244 28
4196 5241 5245 28
4197 5246 5247 28
4198 5246 5248 28
4199 5246 5249 28
4200 5246 5250 28
4201 5251 5252 28
4202 5251 5253 28
4203 5251 5254 28
4204 5251 5255 28
4205 5256 5257 28
4206 5256 5258 28
4207 5256 5259 28
4208 5256 5260 28
4209 5261 5262 28
4210 5261 5263 28
4211 5261 5264 28
4212 5261 5265 28
4213 5266 5267 28
4214 5266 5268 28
4215 5266 5269 28
4216 5266 5270 28
4217 5271 5272 28
4218 5271 5273 28
4219 5271 5274 28
4220 5271 5275 28
4221 5276 5277 28
4222 5276 5278 28
4223 5276 5279 28
4224 5276 5280 28
4225 5281 5282 28
4226 5281 5283 28
4227 5281 5284 28
4228 5281 5285 28
4229 5286 5287 28
4230 5286 5288 28
4231 5286 5289 28
4232 5286 5290 28
4233 5291 5292 28
4234 5291 5293 28
4235 5291 5294 28
4236 5291 5295 28
4237 5296 5297 28
4238 5296 5298 28
4239 5296 5299 28
4240 5296 5300 28
4241 5301 5302 28
4242 5301 5303 28
4243 5301 5304 28
4244 5301 5305 28
4245 5306 5307 28
4246 5306 5308 28
4247 5306 5309 28
4248 5306 5310 28
4249 5311 5312 28
4250 5311 5313 28
4251 5311 5314 28
4252 5311 5315 28
4253 5316 5317 28
4254 5316 5318 28
4255 5316 5319 28
4256 5316 5320 28
4257 5321 5322 28
4258 5321 5323 28
4259 5321 5324 28
4260 5321 5325 28
4261 5326 5327 28
4262 5326 5328 28
4263 5326 5329 28
4264 5326 5330 28
4265 5331 5332 28
4266 5331 5333 28
4267 5331 5334 28
4268 5331 5335 28
4269 5336 5337 28
4270 5336 5338 28
4271 5336 5339 28
4272 5336 5340 28
4273 5341 5342 28
4274 5341 5343 28
4275 5341 5344 28
4276 5341 5345 28
4277 5346 5347 28
4278 5346 5348 28
4279 5346 5349 28
4280 5346 5350 28
4281 5351 5352 28
4282 5351 5353 28
4283 5351 5354 28
4284 5351 5355 28
4285 5356 5357 28
4286 5356 5358 28
4287 5356 5359 28
4288 5356 5360 28
4289 5361 5362 28
4290 5361 5363 28
4291 5361 5364 28
4292 5361 5365 28
4293 5366 5367 28
4294 5366 5368 28
4295 5366 5369 28
4296 5366 5370 28
4297 5371 5372 28
4298 5371 5373 28
4299 5371 5374 28
4300 5371 5375 28
4301 5376 5377 28
4302 5376 5378 28
4303 5376 5379 28
4304 5376 5380 28
4305 5381 5382 28
4306 5381 5383 28
4307 5381 5384 28
4308 5381 5385 28
4309 5386 5387 28
4310 5386 5388 28
4311 5386 5389 28
4312 5386 5390 28
4313 5391 5392 28
4314 5391 5393 28
4315 5391 5394 28
4316 5391 5395 28
4317 5396 5397 28
4318 5396 5398 28
4319 5396 5399 28
4320 5396 5400 28
4321 5401 5402 28
4322 5401 5403 28
4323 5401 5404 28
4324 5401 5405 28
4325 5406 5407 28
4326 5406 5408 28
4327 5406 5409 28
4328 5406 5410 28
4329 5411 5412 28
4330 5411 5413 28
4331 5411 5414 28
4332 5411 5415 28
4333 5416 5417 28
4334 5416 5418 28
4335 5416 5419 28
4336 5416 5420 28
4337 5421 5422 28
4338 5421 5423 28
4339 5421 5424 28
4340 5421 5425 28
4341 5426 5427 28
4342 5426 5428 28
4343 5426 5429 28
4344 5426 5430 28
4345 5431 5432 28
4346 5431 5433 28
4347 5431 5434 28
4348 5431 5435 28
4349 5436 5437 28
4350 5436 5438 28
4351 5436 5439 28
4352 5436 5440 28
4353 5441 5442 28
4354 5441 5443 28
4355 5441 5444 28
4356 5441 5445 28
4357 5446 5447 28
4358 5446 5448 28
4359 5446 5449 28
4360 5446 5450 28
4361 5451 5452 28
4362 5451 5453 28
4363 5451 5454 28
4364 5451 5455 28
4365 5456 5457 28
4366 5456 5458 28
4367 5456 5459 28
4368 5456 5460 28
4369 5461 5462 28
4370 5461 5463 28
4371 5461 5464 28
4372 5461 5465 28
4373 5466 5467 28
4374 5466 5468 28
4375 5466 5469 28
4376 5466 5470 28
4377 5471 5472 28
4378 5471 5473 28
4379 5471 5474 28
4380 5471 5475 28
4381 5476 5477 28
4382 5476 5478 28
4383 5476 5479 28
4384 5476 5480 28
4385 5481 5482 28
4386 5481 5483 28
4387 5481 5484 28
4388 5481 5485 28
4389 5486 5487 28
4390 5486 5488 28
4391 5486 5489 28
4392 5486 5490 28
4393 5491 5492 28
4394 5491 5493 28
4395 5491 5494 28
4396 5491 5495 28
4397 5496 5497 28
4398 5496 5498 28
4399 5496 5499 28
4400 5496 5500 28
4401 5501 5502 28
4402 5501 5503 28
4403 5501 5504 28
4404 5501 5505 28
4405 5506 5507 28
4406 5506 5508 28
4407 5506 5509 28
4408 5506 5510 28
4409 5511 5512 28
4410 5511 5513 28
4411 5511 5514 28
4412 5511 5515 28
4413 5516 5517 28
4414 5516 5518 28
4415 5516 5519 28
4416 5516 5520 28
4417 5521 5522 28
4418 5521 5523 28
4419 5521 5524 28
4420 5521 5525 28
4421 5526 5527 28
4422 5526 5528 28
4423 5526 5529 28
4424 5526 5530 28
4425 5531 5532 28
4426 5531 5533 28
4427 5531 5534 28
4428 5531 5535 28
4429 5536 5537 28
4430 5536 5538 28
4431 5536 5539 28
4432 5536 5540 28
4433 5541 5542 28
4434 5541 5543 28
4435 5541 5544 28
4436 5541 5545 28
4437 5546 5547 28
4438 5546 5548 28
4439 5546 5549 28
4440 5546 5550 28
4441 5551 5552 28
4442 5551 5553 28
4443 5551 5554 28
4444 5551 5555 28
4445 5556 5557 28
4446 5556 5558 28
4447 5556 5559 28
4448 5556 5560 28
4449 5561 5562 28
4450 5561 5563 28
4451 5561 5564 28
4452 5561 5565 28
4453 5566 5567 28
4454 5566 5568 28
4455 5566 5569 28
4456 5566 5570 28
4457 5571 5572 28
4458 5571 5573 28
4459 5571 5574 28
4460 5571 5575 28
4461 5576 5577 28
4462 5576 5578 28
4463 5576 5579 28
4464 5576 5580 28
4465 5581 5582 28
4466 5581 5583 28
4467 5581 5584 28
4468 5581 5585 28
4469 5586 5587 28
4470 5586 5588 28
4471 5586 5589 28
4472 5586 5590 28
4473 5591 5592 28
4474 5591 5593 28
4475 5591 5594 28
4476 5591 5595 28
4477 5596 5597 28
4478 5596 5598 28
4479 5596 5599 28
4480 5596 5600 28
4481 5601 5602 28
4482 5601 5603 28
4483 5601 5604 28
4484 5601 5605 28
4485 5606 5607 28
4486 5606 5608 28
4487 5606 5609 28
4488 5606 5610 28
4489 5611 5612 28
4490 5611 5613 28
4491 5611 5614 28
4492 5611 5615 28
4493 5616 5617 28
4494 5616 5618 28
4495 5616 5619 28
4496 5616 5620 28
4497 5621 5622 28
4498 5621 5623 28
4499 5621 5624 28
4500 5621 5625 28
4501 5626 5627 28
4502 5626 5628 28
4503 5626 5629 28
4504 5626 5630 28
4505 5631 5632 28
4506 5631 5633 28
4507 5631 5634 28
4508 5631 5635 28
4509 5636 5637 28
4510 5636 5638 28
4511 5636 5639 28
4512 5636 5640 28
4513 5641 5642 28
4514 5641 5643 28
4515 5641 5644 28
4516 5641 5645 28
4517 5646 5647 28
4518 5646 5648 28
4519 5646 5649 28
4520 5646 5650 28
4521 5651 5652 28
4522 5651 5653 28
4523 5651 5654 28
4524 5651 5655 28
4525 5656 5657 28
4526 5656 5658 28
4527 5656 5659 28
4528 5656 5660 28
4529 5661 5662 28
4530 5661 5663 28
4531 5661 5664 28
4532 5661 5665 28
4533 5666 5667 28
4534 5666 5668 28
4535 5666 5669 28
4536 5666 5670 28
4537 5671 5672 28
4538 5671 5673 28
4539 5671 5674 28
4540 5671 5675 28
4541 5676 5677 28
4542 5676 5678 28
4543 5676 5679 28
4544 5676 5680 28
4545 5681 5682 28
4546 5681 5683 28
4547 5681 5684 28
4548 5681 5685 28
4549 5686 5687 28
4550 5686 5688 28
4551 5686 5689 28
4552 5686 5690 28
4553 5691 5692 28
4554 5691 5693 28
4555 5691 5694 28
4556 5691 5695 28
4557 5696 5697 28
4558 5696 5698 28
4559 5696 5699 28
4560 5696 5700 28
4561 5701 5702 28
4562 5701 5703 28
4563 5701 5704 28
4564 5701 5705 28
4565 5706 5707 28
4566 5706 5708 28
4567 5706 5709 28
4568 5706 5710 28
4569 5711 5712 28
4570 5711 5713 28
4571 5711 5714 28
4572 5711 5715 28
4573 5716 5717 28
4574 5716 5718 28
4575 5716 5719 28
4576 5716 5720 28
4577 5721 5722 28
4578 5721 5723 28
4579 5721 5724 28
4580 5721 5725 28
4581 5726 5727 28
4582 5726 5728 28
4583 5726 5729 28
4584 5726 5730 28
4585 5731 5732 28
4586 5731 5733 28
4587 5731 5734 28
4588 5731 5735 28
4589 5736 5737 28
4590 5736 5738 28
4591 5736 5739 28
4592 5736 5740 28
4593 5741 5742 28
4594 5741 5743 28
4595 5741 5744 28
4596 5741 5745 28
4597 5746 5747 28
4598 5746 5748 28
4599 5746 5749 28
4600 5746 5750 28
4601 5751 5752 28
4602 5751 5753 28
4603 5751 5754 28
4604 5751 5755 28
4605 5756 5757 28
4606 5756 5758 28
4607 5756 5759 28
4608 5756 5760 28
4609 5761 5762 28
4610 5761 5763 28
4611 5761 5764 28
4612 5761 5765 28
4613 5766 5767 28
4614 5766 5768 28
4615 5766 5769 28
4616 5766 5770 28
4617 5771 5772 28
4618 5771 5773 28
4619 5771 5774 28
4620 5771 5775 28
4621 5776 5777 28
4622 5776 5778 28
4623 5776 5779 28
4624 5776 5780 28
4625 5781 5782 28
4626 5781 5783 28
4627 5781 5784 28
4628 5781 5785 28
4629 5786 5787 28
4630 5786 5788 28
4631 5786 5789 28
4632 5786 5790 28
4633 5791 5792 28
4634 5791 5793 28
4635 5791 5794 28
4636 5791 5795 28
4637 5796 5797 28
4638 5796 5798 28
4639 5796 5799 28
4640 5796 5800 28
4641 5801 5802 28
4642 5801 5803 28
4643 5801 5804 28
4644 5801 5805 28
4645 5806 5807 28
4646 5806 5808 28
4647 5806 5809 28
4648 5806 5810 28
4649 5811 5812 28
4650 5811 5813 28
4651 5811 5814 28
4652 5811 5815 28
4653 5816 5817 28
4654 5816 5818 28
4655 5816 5819 28
4656 5816 5820 28
4657 5821 5822 28
4658 5821 5823 28
4659 5821 5824 28
4660 5821 5825 28
4661 5826 5827 28
4662 5826 5828 28
4663 5826 5829 28
4664 5826 5830 28
4665 5831 5832 28
4666 5831 5833 28
4667 5831 5834 28
4668 5831 5835 28
4669 5836 5837 28
4670 5836 5838 28
4671 5836 5839 28
4672 5836 5840 28
4673 5841 5842 28
4674 5841 5843 28
4675 5841 5844 28
4676 5841 5845 28
4677 5846 5847 28
4678 5846 5848 28
4679 5846 5849 28
4680 5846 5850 28
4681 5851 5852 28
4682 5851 5853 28
4683 5851 5854 28
4684 5851 5855 28
4685 5856 5857 28
4686 5856 5858 28
4687 5856 5859 28
4688 5856 5860 28
4689 5861 5862 28
4690 5861 5863 28
4691 5861 5864 28
4692 5861 5865 28
4693 5866 5867 28
4694 5866 5868 28
4695 5866 5869 28
4696 5866 5870 28
4697 5871 5872 28
4698 5871 5873 28
4699 5871 5874 28
4700 5871 5875 28
4701 5876 5877 28
4702 5876 5878 28
4703 5876 5879 28
4704 5876 5880 28
4705 5881 5882 28
4706 5881 5883 28
4707 5881 5884 28
4708 5881 5885 28
4709 5886 5887 28
4710 5886 5888 28
4711 5886 5889 28
4712 5886 5890 28
4713 5891 5892 28
4714 5891 5893 28
4715 5891 5894 28
4716 5891 5895 28
4717 5896 5897 28
4718 5896 5898 28
4719 5896 5899 28
4720 5896 5900 28
4721 5901 5902 28
4722 5901 5903 28
4723 5901 5904 28
4724 5901 5905 28
4725 5906 5907 28
4726 5906 5908 28
4727 5906 5909 28
4728 5906 5910 28
4729 5911 5912 28
4730 5911 5913 28
4731 5911 5914 28
4732 5911 5915 28
4733 5916 5917 28
4734 5916 5918 28
4735 5916 5919 28
4736 5916 5920 28
4737 5921 5922 28
4738 5921 5923 28
4739 5921 5924 28
4740 5921 5925 28
4741 5926 5927 28
4742 5926 5928 28
4743 5926 5929 28
4744 5926 5930 28
4745 5931 5932 28
4746 5931 5933 28
4747 5931 5934 28
4748 5931 5935 28
4749 5936 5937 28
4750 5936 5938 28
4751 5936 5939 28
4752 5936 5940 28
4753 5941 5942 28
4754 5941 5943 28
4755 5941 5944 28
4756 5941 5945 28
4757 5946 5947 28
4758 5946 5948 28
4759 5946 5949 28
4760 5946 5950 28
4761 5951 5952 28
4762 5951 5953 28
4763 5951 5954 28
4764 5951 5955 28
4765 5956 5957 28
4766 5956 5958 28
4767 5956 5959 28
4768 5956 5960 28
4769 5961 5962 28
4770 5961 5963 28
4771 5961 5964 28
4772 5961 5965 28
4773 5966 5967 28
4774 5966 5968 28
4775 5966 5969 28
4776 5966 5970 28
4777 5971 5972 28
4778 5971 5973 28
4779 5971 5974 28
4780 5971 5975 28
4781 5976 5977 28
4782 5976 5978 28
4783 5976 5979 28
4784 5976 5980 28
4785 5981 5982 28
4786 5981 5983 28
4787 5981 5984 28
4788 5981 5985 28
4789 5986 5987 28
4790 5986 5988 28
4791 5986 5989 28
4792 5986 5990 28
4793 5991 5992 28
4794 5991 5993 28
4795 5991 5994 28
4796 5991 5995 28
4797 5996 5997 28
4798 5996 5998 28
4799 5996 5999 28
4800 5996 6000 28
4801 6001 6002 28
4802 6001 6003 28
4803 6001 6004 28
4804 6001 6005 28
4805 6006 6007 28
4806 6006 6008 28
4807 6006 6009 28
4808 6006 6010 28
4809 6011 6012 28
4810 6011 6013 28
4811 6011 6014 28
4812 6011 6015 28
4813 6016 6017 28
4814 6016 6018 28
4815 6016 6019 28
4816 6016 6020 28
4817 6021 6022 28
4818 6021 6023 28
4819 6021 6024 28
4820 6021 6025 28
4821 6026 6027 28
4822 6026 6028 28
4823 6026 6029 28
4824 6026 6030 28
4825 6031 6032 28
4826 6031 6033 28
4827 6031 6034 28
4828 6031 6035 28
4829 6036 6037 28
4830 6036 6038 28
4831 6036 6039 28
4832 6036 6040 28
4833 6041 6042 28
4834 6041 6043 28
4835 6041 6044 28
4836 6041 6045 28
4837 6046 6047 28
4838 6046 6048 28
4839 6046 6049 28
4840 6046 6050 28
4841 6051 6052 28
4842 6051 6053 28
4843 6051 6054 28
4844 6051 6055 28
4845 6056 6057 28
4846 6056 6058 28
4847 6056 6059 28
4848 6056 6060 28
4849 6061 6062 28
4850 6061 6063 28
4851 6061 6064 28
4852 6061 6065 28
4853 6066 6067 28
4854 6066 6068 28
4855 6066 6069 28
4856 6066 6070 28
4857 6071 6072 28
4858 6071 6073 28
4859 6071 6074 28
4860 6071 6075 28
4861 6076 6077 28
4862 6076 6078 28
4863 6076 6079 28
4864 6076 6080 28
4865 6081 6082 28
4866 6081 6083 28
4867 6081 6084 28
4868 6081 6085 28
4869 6086 6087 28
4870 6086 6088 28
4871 6086 6089 28
4872 6086 6090 28
4873 6091 6092 28
4874 6091 6093 28
4875 6091 6094 28
4876 6091 6095 28
4877 6096 6097 28
4878 6096 6098 28
4879 6096 6099 28
4880 6096 6100 28
4881 6101 6102 28
4882 6101 6103 28
4883 6101 6104 28
4884 6101 6105 28
4885 6106 6107 28
4886 6106 6108 28
4887 6106 6109 28
4888 6106 6110 28
4889 6111 6112 28
4890 6111 6113 28
4891 6111 6114 28
4892 6111 6115 28
4893 6116 6117 28
4894 6116 6118 28
4895 6116 6119 28
4896 6116 6120 28
4897 6121 6122 28
4898 6121 6123 28
4899 6121 6124 28
4900 6121 6125 28
4901 6126 6127 28
4902 6126 6128 28
4903 6126 6129 28
4904 6126 6130 28
4905 6131 6132 28
4906 6131 6133 28
4907 6131 6134 28
4908 6131 6135 28
4909 6136 6137 28
4910 6136 6138 28
4911 6136 6139 28
4912 6136 6140 28
4913 6141 6142 28
4914 6141 6143 28
4915 6141 6144 28
4916 6141 6145 28
4917 6146 6147 28
4918 6146 6148 28
4919 6146 6149 28
4920 6146 6150 28
4921 6151 6152 28
4922 6151 6153 28
4923 6151 6154 28
4924 6151 6155 28
4925 6156 6157 28
4926 6156 6158 28
4927 6156 6159 28
4928 6156 6160 28
4929 6161 6162 28
4930 6161 6163 28
4931 6161 6164 28
4932 6161 6165 28
4933 6166 6167 28
4934 6166 6168 28
4935 6166 6169 28
4936 6166 6170 28
4937 6171 6172 28
4938 6171 6173 28
4939 6171 6174 28
4940 6171 6175 28
4941 6176 6177 28
4942 6176 6178 28
4943 6176 6179 28
4944 6176 6180 28
4945 6181 6182 28
4946 6181 6183 28
4947 6181 6184 28
4948 6181 6185 28
4949 6186 6187 28
4950 6186 6188 28
4951 6186 6189 28
4952 6186 6190 28
4953 6191 6192 28
4954 6191 6193 28
4955 6191 6194 28
4956 6191 6195 28
4957 6196 6197 28
4958 6196 6198 28
4959 6196 6199 28
4960 6196 6200 28
4961 6201 6202 28
4962 6201 6203 28
4963 6201 6204 28
4964 6201 6205 28
4965 6206 6207 28
4966 6206 6208 28
4967 6206 6209 28
4968 6206 6210 28
4969 6211 6212 28
4970 6211 6213 28
4971 6211 6214 28
4972 6211 6215 28
4973 6216 6217 28
4974 6216 6218 28
4975 6216 6219 28
4976 6216 6220 28
4977 6221 6222 28
4978 6221 6223 28
4979 6221 6224 28
4980 6221 6225 28
4981 6226 6227 28
4982 6226 6228 28
4983 6226 6229 28
4984 6226 6230 28
4985 6231 6232 28
4986 6231 6233 28
4987 6231 6234 28
4988 6231 6235 28
4989 6236 6237 28
4990 6236 6238 28
4991 6236 6239 28
4992 6236 6240 28
4993 6241 6242 28
4994 6241 6243 28
4995 6241 6244 28
4996 6241 6245 28
4997 6246 6247 28
4998 6246 6248 28
4999 6246 6249 28
5000 6246 6250 28
5001 6251 6252 28
5002 6251 6253 28
5003 6251 6254 28
5004 6251 6255 28
5005 6256 6257 28
5006 6256 6258 28
5007 6256 6259 28
5008 6256 6260 28
5009 6261 6262 28
5010 6261 6263 28
5011 6261 6264 28
5012 6261 6265 28
5013 6266 6267 28
5014 6266 6268 28
5015 6266 6269 28
5016 6266 6270 28
5017 6271 6272 28
5018 6271 6273 28
5019 6271 6274 28
5020 6271 6275 28
5021 6276 6277 28
5022 6276 6278 28
5023 6276 6279 28
5024 6276 6280 28
5025 6281 6282 28
5026 6281 6283 28
5027 6281 6284 28
5028 6281 6285 28
5029 6286 6287 28
5030 6286 6288 28
5031 6286 6289 28
5032 6286 6290 28
5033 6291 6292 28
5034 6291 6293 28
5035 6291 6294 28
5036 6291 6295 28
5037 6296 6297 28
5038 6296 6298 28
5039 6296 6299 28
5040 6296 6300 28
5041 6301 6302 28
5042 6301 6303 28
5043 6301 6304 28
5044 6301 6305 28
5045 6306 6307 28
5046 6306 6308 28
5047 6306 6309 28
5048 6306 6310 28
5049 6311 6312 28
5050 6311 6313 28
5051 6311 6314 28
5052 6311 6315 28
5053 6316 6317 28
5054 6316 6318 28
5055 6316 6319 28
5056 6316 6320 28
5057 6321 6322 28
5058 6321 6323 28
5059 6321 6324 28
5060 6321 6325 28
5061 6326 6327 28
5062 6326 6328 28
5063 6326 6329 28
5064 6326 6330 28
5065 6331 6332 28
5066 6331 6333 28
5067 6331 6334 28
5068 6331 6335 28
5069 6336 6337 28
5070 6336 6338 28
5071 6336 6339 28
5072 6336 6340 28
5073 6341 6342 28
5074 6341 6343 28
5075 6341 6344 28
5076 6341 6345 28
5077 6346 6347 28
5078 6346 6348 28
5079 6346 6349 28
5080 6346 6350 28
5081 6351 6352 28
5082 6351 6353 28
5083 6351 6354 28
5084 6351 6355 28
5085 6356 6357 28
5086 6356 6358 28
5087 6356 6359 28
5088 6356 6360 28
5089 6361 6362 28
5090 6361 6363 28
5091 6361 6364 28
5092 6361 6365 28
5093 6366 6367 28
5094 6366 6368 28
5095 6366 6369 28
5096 6366 6370 28
5097 6371 6372 28
5098 6371 6373 28
5099 6371 6374 28
5100 6371 6375 28
5101 6376 6377 28
5102 6376 6378 28
5103 6376 6379 28
5104 6376 6380 28
5105 6381 6382 28
5106 6381 6383 28
5107 6381 6384 28
5108 6381 6385 28
5109 6386 6387 28
5110 6386 6388 28
5111 6386 6389 28
5112 6386 6390 28
5113 6391 6392 28
5114 6391 6393 28
5115 6391 6394 28
5116 6391 6395 28
5117 6396 6397 28
5118 6396 6398 28
5119 6396 6399 28
5120 6396 6400 28
5121 6401 6402 28
5122 6401 6403 28
5123 6401 6404 28
5124 6401 6405 28
5125 6406 6407 28
5126 6406 6408 28
5127 6406 6409 28
5128 6406 6410 28
5129 6411 6412 28
5130 6411 6413 28
5131 6411 6414 28
5132 6411 6415 28
5133 6416 6417 28
5134 6416 6418 28
5135 6416 6419 28
5136 6416 6420 28
5137 6421 6422 28
5138 6421 6423 28
5139 6421 6424 28
5140 6421 6425 28
5141 6426 6427 28
5142 6426 6428 28
5143 6426 6429 28
5144 6426 6430 28
5145 6431 6432 28
5146 6431 6433 28
5147 6431 6434 28
5148 6431 6435 28
5149 6436 6437 28
5150 6436 6438 28
5151 6436 6439 28
5152 6436 6440 28
5153 6441 6442 28
5154 6441 6443 28
5155 6441 6444 28
5156 6441 6445 28
5157 6446 6447 28
5158 6446 6448 28
5159 6446 6449 28
5160 6446 6450 28
5161 6451 6452 28
5162 6451 6453 28
5163 6451 6454 28
5164 6451 6455 28
5165 6456 6457 28
5166 6456 6458 28
5167 6456 6459 28
5168 6456 6460 28
5169 6461 6462 28
5170 6461 6463 28
5171 6461 6464 28
5172 6461 6465 28
5173 6466 6467 28
5174 6466 6468 28
5175 6466 6469 28
5176 6466 6470 28
5177 6471 6472 28
5178 6471 6473 28
5179 6471 6474 28
5180 6471 6475 28
5181 6476 6477 28
5182 6476 6478 28
5183 6476 6479 28
5184 6476 6480 28
5185 6481 6482 28
5186 6481 6483 28
5187 6481 6484 28
5188 6481 6485 28
5189 6486 6487 28
5190 6486 6488 28
5191 6486 6489 28
5192 6486 6490 28
5193 6491 6492 28
5194 6491 6493 28
5195 6491 6494 28
5196 6491 6495 28
5197 6496 6497 28
5198 6496 6498 28
5199 6496 6499 28
5200 6496 6500 28
5201 6501 6502 28
5202 6501 6503 28
5203 6501 6504 28
5204 6501 6505 28
5205 6506 6507 28
5206 6506 6508 28
5207 6506 6509 28
5208 6506 6510 28
5209 6511 6512 28
5210 6511 6513 28
5211 6511 6514 28
5212 6511 6515 28
5213 6516 6517 28
5214 6516 6518 28
5215 6516 6519 28
5216 6516 6520 28
5217 6521 6522 28
5218 6521 6523 28
5219 6521 6524 28
5220 6521 6525 28
5221 6526 6527 28
5222 6526 6528 28
5223 6526 6529 28
5224 6526 6530 28
5225 6531 6532 28
5226 6531 6533 28
5227 6531 6534 28
5228 6531 6535 28
5229 6536 6537 28
5230 6536 6538 28
5231 6536 6539 28
5232 6536 6540 28
5233 6541 6542 28
5234 6541 6543 28
5235 6541 6544 28
5236 6541 6545 28
5237 6546 6547 28
5238 6546 6548 28
5239 6546 6549 28
5240 6546 6550 28
5241 6551 6552 28
5242 6551 6553 28
5243 6551 6554 28
5244 6551 6555 28
5245 6556 6557 28
5246 6556 6558 28
5247 6556 6559 28
5248 6556 6560 28
5249 6561 6562 28
5250 6561 6563 28
5251 6561 6564 28
5252 6561 6565 28
5253 6566 6567 28
5254 6566 6568 28
5255 6566 6569 28
5256 6566 6570 28
5257 6571 6572 28
5258 6571 6573 28
5259 6571 6574 28
5260 6571 6575 28
5261 6576 6577 28
5262 6576 6578 28
5263 6576 6579 28
5264 6576 6580 28
5265 6581 6582 28
5266 6581 6583 28
5267 6581 6584 28
5268 6581 6585 28
5269 6586 6587 28
5270 6586 6588 28
5271 6586 6589 28
5272 6586 6590 28
5273 6591 6592 28
5274 6591 6593 28
5275 6591 6594 28
5276 6591 6595 28
5277 6596 6597 28
5278 6596 6598 28
5279 6596 6599 28
5280 6596 6600 28
5281 6601 6602 28
5282 6601 6603 28
5283 6601 6604 28
5284 6601 6605 28
5285 6606 6607 28
5286 6606 6608 28
5287 6606 6609 28
5288 6606 6610 28
5289 6611 6612 28
5290 6611 6613 28
5291 6611 6614 28
5292 6611 6615 28
5293 6616 6617 28
5294 6616 6618 28
5295 6616 6619 28
5296 6616 6620 28
5297 6621 6622 28
5298 6621 6623 28
5299 6621 6624 28
5300 6621 6625 28
5301 6626 6627 28
5302 6626 6628 28
5303 6626 6629 28
5304 6626 6630 28
5305 6631 6632 28
5306 6631 6633 28
5307 6631 6634 28
5308 6631 6635 28
5309 6636 6637 28
5310 6636 6638 28
5311 6636 6639 28
5312 6636 6640 28
5313 6641 6642 28
5314 6641 6643 28
5315 6641 6644 28
5316 6641 6645 28
5317 6646 6647 28
5318 6646 6648 28
5319 6646 6649 28
5320 6646 6650 28
5321 6651 6652 28
5322 6651 6653 28
5323 6651 6654 28
5324 6651 6655 28
5325 6656 6657 28
5326 6656 6658 28
5327 6656 6659 28
5328 6656 6660 28
5329 6661 6662 28
5330 6661 6663 28
5331 6661 6664 28
5332 6661 6665 28
5333 6666 6667 28
5334 6666 6668 28
5335 6666 6669 28
5336 6666 6670 28
5337 6671 6672 28
5338 6671 6673 28
5339 6671 6674 28
5340 6671 6675 28
5341 6676 6677 28
5342 6676 6678 28
5343 6676 6679 28
5344 6676 6680 28
5345 6681 6682 28
5346 6681 6683 28
5347 6681 6684 28
5348 6681 6685 28
5349 6686 6687 28
5350 6686 6688 28
5351 6686 6689 28
5352 6686 6690 28
5353 6691 6692 28
5354 6691 6693 28
5355 6691 6694 28
5356 6691 6695 28
5357 6696 6697 28
5358 6696 6698 28
5359 6696 6699 28
5360 6696 6700 28
5361 6701 6702 28
5362 6701 6703 28
5363 6701 6704 28
5364 6701 6705 28
5365 6706 6707 28
5366 6706 6708 28
5367 6706 6709 28
5368 6706 6710 28
5369 6711 6712 28
5370 6711 6713 28
5371 6711 6714 28
5372 6711 6715 28
5373 6716 6717 28
5374 6716 6718 28
5375 6716 6719 28
5376 6716 6720 28
5377 6721 6722 28
5378 6721 6723 28
5379 6721 6724 28
5380 6721 6725 28
5381 6726 6727 28
5382 6726 6728 28
5383 6726 6729 28
5384 6726 6730 28
5385 6731 6732 28
5386 6731 6733 28
5387 6731 6734 28
5388 6731 6735 28
5389 6736 6737 28
5390 6736 6738 28
5391 6736 6739 28
5392 6736 6740 28
5393 6741 6742 28
5394 6741 6743 28
5395 6741 6744 28
5396 6741 6745 28
5397 6746 6747 28
5398 6746 6748 28
5399 6746 6749 28
5400 6746 6750 28
5401 6751 6752 28
5402 6751 6753 28
5403 6751 6754 28
5404 6751 6755 28
5405 6756 6757 28
5406 6756 6758 28
5407 6756 6759 28
5408 6756 6760 28
5409 6761 6762 28
5410 6761 6763 28
5411 6761 6764 28
5412 6761 6765 28
5413 6766 6767 28
5414 6766 6768 28
5415 6766 6769 28
5416 6766 6770 28
5417 6771 6772 28
5418 6771 6773 28
5419 6771 6774 28
5420 6771 6775 28
5421 6776 6777 28
5422 6776 6778 28
5423 6776 6779 28
5424 6776 6780 28
5425 6781 6782 28
5426 6781 6783 28
5427 6781 6784 28
5428 6781 6785 28
5429 6786 6787 28
5430 6786 6788 28
5431 6786 6789 28
5432 6786 6790 28
5433 6791 6792 28
5434 6791 6793 28
5435 6791 6794 28
5436 6791 6795 28
5437 6796 6797 28
5438 6796 6798 28
5439 6796 6799 28
5440 6796 6800 28
5441 6801 6802 28
5442 6801 6803 28
5443 6801 6804 28
5444 6801 6805 28
5445 6806 6807 28
5446 6806 6808 28
5447 6806 6809 28
5448 6806 6810 28
5449 6811 6812 28
5450 6811 6813 28
5451 6811 6814 28
5452 6811 6815 28
5453 6816 6817 28
5454 6816 6818 28
5455 6816 6819 28
5456 6816 6820 28
5457 6821 6822 28
5458 6821 6823 28
5459 6821 6824 28
5460 6821 6825 28
5461 6826 6827 28
5462 6826 6828 28
5463 6826 6829 28
5464 6826 6830 28
5465 6831 6832 28
5466 6831 6833 28
5467 6831 6834 28
5468 6831 6835 28
5469 6836 6837 28
5470 6836 6838 28
5471 6836 6839 28
5472 6836 6840 28
5473 6841 6842 28
5474 6841 6843 28
5475 6841 6844 28
5476 6841 6845 28
5477 6846 6847 28
5478 6846 6848 28
5479 6846 6849 28
5480 6846 6850 28
5481 6851 6852 28
5482 6851 6853 28
5483 6851 6854 28
5484 6851 6855 28
5485 6856 6857 28
5486 6856 6858 28
5487 6856 6859 28
5488 6856 6860 28
5489 6861 6862 28
5490 6861 6863 28
5491 6861 6864 28
5492 6861 6865 28
5493 6866 6867 28
5494 6866 6868 28
5495 6866 6869 28
5496 6866 6870 28
5497 6871 6872 28
5498 6871 6873 28
5499 6871 6874 28
5500 6871 6875 28
5501 6876 6877 28
5502 6876 6878 28
5503 6876 6879 28
5504 6876 6880 28
5505 6881 6882 28
5506 6881 6883 28
5507 6881 6884 28
5508 6881 6885 28
5509 6886 6887 28
5510 6886 6888 28
5511 6886 6889 28
5512 6886 6890 28
5513 6891 6892 28
5514 6891 6893 28
5515 6891 6894 28
5516 6891 6895 28
5517 6896 6897 28
5518 6896 6898 28
5519 6896 6899 28
5520 6896 6900 28
5521 6901 6902 28
5522 6901 6903 28
5523 6901 6904 28
5524 6901 6905 28
5525 6906 6907 28
5526 6906 6908 28
5527 6906 6909 28
5528 6906 6910 28
5529 6911 6912 28
5530 6911 6913 28
5531 6911 6914 28
5532 6911 6915 28
5533 6916 6917 28
5534 6916 6918 28
5535 6916 6919 28
5536 6916 6920 28
5537 6921 6922 28
5538 6921 6923 28
5539 6921 6924 28
5540 6921 6925 28
5541 6926 6927 28
5542 6926 6928 28
5543 6926 6929 28
5544 6926 6930 28
5545 6931 6932 28
5546 6931 6933 28
5547 6931 6934 28
5548 6931 6935 28
5549 6936 6937 28
5550 6936 6938 28
5551 6936 6939 28
5552 6936 6940 28
5553 6941 6942 28
5554 6941 6943 28
5555 6941 6944 28
5556 6941 6945 28
5557 6946 6947 28
5558 6946 6948 28
5559 6946 6949 28
5560 6946 6950 28
5561 6951 6952 28
5562 6951 6953 28
5563 6951 6954 28
5564 6951 6955 28
5565 6956 6957 28
5566 6956 6958 28
5567 6956 6959 28
5568 6956 6960 28
5569 6961 6962 28
5570 6961 6963 28
5571 6961 6964 28
5572 6961 6965 28
5573 6966 6967 28
5574 6966 6968 28
5575 6966 6969 28
5576 6966 6970 28
5577 6971 6972 28
5578 6971 6973 28
5579 6971 6974 28
5580 6971 6975 28
5581 6976 6977 28
5582 6976 6978 28
5583 6976 6979 28
5584 6976 6980 28
5585 6981 6982 28
5586 6981 6983 28
5587 6981 6984 28
5588 6981 6985 28
5589 6986 6987 28
5590 6986 6988 28
5591 6986 6989 28
5592 6986 6990 28
5593 6991 6992 28
5594 6991 6993 28
5595 6991 6994 28
5596 6991 6995 28
5597 6996 6997 28
5598 6996 6998 28
5599 6996 6999 28
5600 6996 7000 28
5601 7001 7002 28
5602 7001 7003 28
5603 7001 7004 28
5604 7001 7005 28
5605 7006 7007 28
5606 7006 7008 28
5607 7006 7009 28
5608 7006 7010 28
5609 7011 7012 28
5610 7011 7013 28
5611 7011 7014 28
5612 7011 7015 28
5613 7016 7017 28
5614 7016 7018 28
5615 7016 7019 28
5616 7016 7020 28
5617 7021 7022 28
5618 7021 7023 28
5619 7021 7024 28
5620 7021 7025 28
5621 7026 7027 28
5622 7026 7028 28
5623 7026 7029 28
5624 7026 7030 28
5625 7031 7032 28
5626 7031 7033 28
5627 7031 7034 28
5628 7031 7035 28
5629 7036 7037 28
5630 7036 7038 28
5631 7036 7039 28
5632 7036 7040 28
5633 7041 7042 28
5634 7041 7043 28
5635 7041 7044 28
5636 7041 7045 28
5637 7046 7047 28
5638 7046 7048 28
5639 7046 7049 28
5640 7046 7050 28
5641 7051 7052 28
5642 7051 7053 28
5643 7051 7054 28
5644 7051 7055 28
5645 7056 7057 28
5646 7056 7058 28
5647 7056 7059 28
5648 7056 7060 28
5649 7061 7062 28
5650 7061 7063 28
5651 7061 7064 28
5652 7061 7065 28
5653 7066 7067 28
5654 7066 7068 28
5655 7066 7069 28
5656 7066 7070 28
5657 7071 7072 28
5658 7071 7073 28
5659 7071 7074 28
5660 7071 7075 28
5661 7076 7077 28
5662 7076 7078 28
5663 7076 7079 28
5664 7076 7080 28
5665 7081 7082 28
5666 7081 7083 28
5667 7081 7084 28
5668 7081 7085 28
5669 7086 7087 28
5670 7086 7088 28
5671 7086 7089 28
5672 7086 7090 28
5673 7091 7092 28
5674 7091 7093 28
5675 7091 7094 28
5676 7091 7095 28
5677 7096 7097 28
5678 7096 7098 28
5679 7096 7099 28
5680 7096 7100 28
5681 7101 7102 28
5682 7101 7103 28
5683 7101 7104 28
5684 7101 7105 28
5685 7106 7107 28
5686 7106 7108 28
5687 7106 7109 28
5688 7106 7110 28
5689 7111 7112 28
5690 7111 7113 28
5691 7111 7114 28
5692 7111 7115 28
5693 7116 7117 28
5694 7116 7118 28
5695 7116 7119 28
5696 7116 7120 28
5697 7121 7122 28
5698 7121 7123 28
5699 7121 7124 28
5700 7121 7125 28
5701 7126 7127 28
5702 7126 7128 28
5703 7126 7129 28
5704 7126 7130 28
5705 7131 7132 28
5706 7131 7133 28
5707 7131 7134 28
5708 7131 7135 28
5709 7136 7137 28
5710 7136 7138 28
5711 7136 7139 28
5712 7136 7140 28
5713 7141 7142 28
5714 7141 7143 28
5715 7141 7144 28
5716 7141 7145 28
5717 7146 7147 28
5718 7146 7148 28
5719 7146 7149 28
5720 7146 7150 28
5721 7151 7152 28
5722 7151 7153 28
5723 7151 7154 28
5724 7151 7155 28
5725 7156 7157 28
5726 7156 7158 28
5727 7156 7159 28
5728 7156 7160 28
5729 7161 7162 28
5730 7161 7163 28
5731 7161 7164 28
5732 7161 7165 28
5733 7166 7167 28
5734 7166 7168 28
5735 7166 7169 28
5736 7166 7170 28
5737 7171 7172 28
5738 7171 7173 28
5739 7171 7174 28
5740 7171 7175 28
5741 7176 7177 28
5742 7176 7178 28
5743 7176 7179 28
5744 7176 7180 28
5745 7181 7182 28
5746 7181 7183 28
5747 7181 7184 28
5748 7181 7185 28
5749 7186 7187 28
5750 7186 7188 28
5751 7186 7189 28
5752 7186 7190 28
5753 7191 7192 28
5754 7191 7193 28
5755 7191 7194 28
5756 7191 7195 28
5757 7196 7197 28
5758 7196 7198 28
5759 7196 7199 28
5760 7196 7200 28
5761 7201 7202 28
5762 7201 7203 28
5763 7201 7204 28
5764 7201 7205 28
5765 7206 7207 28
5766 7206 7208 28
5767 7206 7209 28
5768 7206 7210 28
5769 7211 7212 28
5770 7211 7213 28
5771 7211 7214 28
5772 7211 7215 28
5773 7216 7217 28
5774 7216 7218 28
5775 7216 7219 28
5776 7216 7220 28
5777 7221 7222 28
5778 7221 7223 28
5779 7221 7224 28
5780 7221 7225 28
5781 7226 7227 28
5782 7226 7228 28
5783 7226 7229 28
5784 7226 7230 28
5785 7231 7232 28
5786 7231 7233 28
5787 7231 7234 28
5788 7231 7235 28
5789 7236 7237 28
5790 7236 7238 28
5791 7236 7239 28
5792 7236 7240 28
5793 7241 7242 28
5794 7241 7243 28
5795 7241 7244 28
5796 7241 7245 28
5797 7246 7247 28
5798 7246 7248 28
5799 7246 7249 28
5800 7246 7250 28
5801 7251 7252 28
5802 7251 7253 28
5803 7251 7254 28
5804 7251 7255 28
5805 7256 7257 28
5806 7256 7258 28
5807 7256 7259 28
5808 7256 7260 28
5809 7261 7262 28
5810 7261 7263 28
5811 7261 7264 28
5812 7261 7265 28
5813 7266 7267 28
5814 7266 7268 28
5815 7266 7269 28
5816 7266 7270 28
5817 7271 7272 28
5818 7271 7273 28
5819 7271 7274 28
5820 7271 7275 28
5821 7276 7277 28
5822 7276 7278 28
5823 7276 7279 28
5824 7276 7280 28
5825 7281 7282 28
5826 7281 7283 28
5827 7281 7284 28
5828 7281 7285 28
5829 7286 7287 28
5830 7286 7288 28
5831 7286 7289 28
5832 7286 7290 28
5833 7291 7292 28
5834 7291 7293 28
5835 7291 7294 28
5836 7291 7295 28
5837 7296 7297 28
5838 7296 7298 28
5839 7296 7299 28
5840 7296 7300 28
5841 7301 7302 28
5842 7301 7303 28
5843 7301 7304 28
5844 7301 7305 28
5845 7306 7307 28
5846 7306 7308 28
5847 7306 7309 28
5848 7306 7310 28
5849 7311 7312 28
5850 7311 7313 28
5851 7311 7314 28
5852 7311 7315 28
5853 7316 7317 28
5854 7316 7318 28
5855 7316 7319 28
5856 7316 7320 28
5857 7321 7322 28
5858 7321 7323 28
5859 7321 7324 28
5860 7321 7325 28
5861 7326 7327 28
5862 7326 7328 28
5863 7326 7329 28
5864 7326 7330 28
5865 7331 7332 28
5866 7331 7333 28
5867 7331 7334 28
5868 7331 7335 28
5869 7336 7337 28
5870 7336 7338 28
5871 7336 7339 28
5872 7336 7340 28
5873 7341 7342 28
5874 7341 7343 28
5875 7341 7344 28
5876 7341 7345 28
5877 7346 7347 28
5878 7346 7348 28
5879 7346 7349 28
5880 7346 7350 28
5881 7351 7352 28
5882 7351 7353 28
5883 7351 7354 28
5884 7351 7355 28
5885 7356 7357 28
5886 7356 7358 28
5887 7356 7359 28
5888 7356 7360 28
5889 7361 7362 28
5890 7361 7363 28
5891 7361 7364 28
5892 7361 7365 28
5893 7366 7367 28
5894 7366 7368 28
5895 7366 7369 28
5896 7366 7370 28
5897 7371 7372 28
5898 7371 7373 28
5899 7371 7374 28
5900 7371 7375 28
5901 7376 7377 28
5902 7376 7378 28
5903 7376 7379 28
5904 7376 7380 28
5905 7381 7382 28
5906 7381 7383 28
5907 7381 7384 28
5908 7381 7385 28
5909 7386 7387 28
5910 7386 7388 28
5911 7386 7389 28
5912 7386 7390 28
5913 7391 7392 28
5914 7391 7393 28
5915 7391 7394 28
5916 7391 7395 28
5917 7396 7397 28
5918 7396 7398 28
5919 7396 7399 28
5920 7396 7400 28
5921 7401 7402 28
5922 7401 7403 28
5923 7401 7404 28
5924 7401 7405 28
5925 7406 7407 28
5926 7406 7408 28
5927 7406 7409 28
5928 7406 7410 28
5929 7411 7412 28
5930 7411 7413 28
5931 7411 7414 28
5932 7411 7415 28
5933 7416 7417 28
5934 7416 7418 28
5935 7416 7419 28
5936 7416 7420 28
5937 7421 7422 28
5938 7421 7423 28
5939 7421 7424 28
5940 7421 7425 28
5941 7426 7427 28
5942 7426 7428 28
5943 7426 7429 28
5944 7426 7430 28
5945 7431 7432 28
5946 7431 7433 28
5947 7431 7434 28
5948 7431 7435 28
5949 7436 7437 28
5950 7436 7438 28
5951 7436 7439 28
5952 7436 7440 28
5953 7441 7442 28
5954 7441 7443 28
5955 7441 7444 28
5956 7441 7445 28
5957 7446 7447 28
5958 7446 7448 28
5959 7446 7449 28
5960 7446 7450 28
5961 7451 7452 28
5962 7451 7453 28
5963 7451 7454 28
5964 7451 7455 28
5965 7456 7457 28
5966 7456 7458 28
5967 7456 7459 28
5968 7456 7460 28
5969 7461 7462 28
5970 7461 7463 28
5971 7461 7464 28
5972 7461 7465 28
5973 7466 7467 28
5974 7466 7468 28
5975 7466 7469 28
5976 7466 7470 28
5977 7471 7472 28
5978 7471 7473 28
5979 7471 7474 28
5980 7471 7475 28
5981 7476 7477 28
5982 7476 7478 28
5983 7476 7479 28
5984 7476 7480 28
5985 7481 7482 28
5986 7481 7483 28
5987 7481 7484 28
5988 7481 7485 28
5989 7486 7487 28
5990 7486 7488 28
5991 7486 7489 28
5992 7486 7490 28
5993 7491 7492 28
5994 7491 7493 28
5995 7491 7494 28
5996 7491 7495 28
5997 7496 7497 28
5998 7496 7498 28
5999 7496 7499 28
6000 7496 7500 28
6001 7501 7502 28
6002 7501 7503 28
6003 7501 7504 28
6004 7501 7505 28
6005 7506 7507 28
6006 7506 7508 28
6007 7506 7509 28
6008 7506 7510 28
6009 7511 7512 28
6010 7511 7513 28
6011 7511 7514 28
6012 7511 7515 28
6013 7516 7517 28
6014 7516 7518 28
6015 7516 7519 28
6016 7516 7520 28
6017 7521 7522 28
6018 7521 7523 28
6019 7521 7524 28
6020 7521 7525 28
6021 7526 7527 28
6022 7526 7528 28
6023 7526 7529 28
6024 7526 7530 28
6025 7531 7532 28
6026 7531 7533 28
6027 7531 7534 28
6028 7531 7535 28
6029 7536 7537 28
6030 7536 7538 28
6031 7536 7539 28
6032 7536 7540 28
6033 7541 7542 28
6034 7541 7543 28
6035 7541 7544 28
6036 7541 7545 28
6037 7546 7547 28
6038 7546 7548 28
6039 7546 7549 28
6040 7546 7550 28
6041 7551 7552 28
6042 7551 7553 28
6043 7551 7554 28
6044 7551 7555 28
6045 7556 7557 28
6046 7556 7558 28
6047 7556 7559 28
6048 7556 7560 28
6049 7561 7562 28
6050 7561 7563 28
6051 7561 7564 28
6052 7561 7565 28
6053 7566 7567 28
6054 7566 7568 28
6055 7566 7569 28
6056 7566 7570 28
6057 7571 7572 28
6058 7571 7573 28
6059 7571 7574 28
6060 7571 7575 28
6061 7576 7577 28
6062 7576 7578 28
6063 7576 7579 28
6064 7576 7580 28
6065 7581 7582 28
6066 7581 7583 28
6067 7581 7584 28
6068 7581 7585 28
6069 7586 7587 28
6070 7586 7588 28
6071 7586 7589 28
6072 7586 7590 28
6073 7591 7592 28
6074 7591 7593 28
6075 7591 7594 28
6076 7591 7595 28
6077 7596 7597 28
6078 7596 7598 28
6079 7596 7599 28
6080 7596 7600 28
6081 7601 7602 28
6082 7601 7603 28
6083 7601 7604 28
6084 7601 7605 28
6085 7606 7607 28
6086 7606 7608 28
6087 7606 7609 28
6088 7606 7610 28
6089 7611 7612 28
6090 7611 7613 28
6091 7611 7614 28
6092 7611 7615 28
6093 7616 7617 28
6094 7616 7618 28
6095 7616 7619 28
6096 7616 7620 28
6097 7621 7622 28
6098 7621 7623 28
6099 7621 7624 28
6100 7621 7625 28
6101 7626 7627 28
6102 7626 7628 28
6103 7626 7629 28
6104 7626 7630 28
6105 7631 7632 28
6106 7631 7633 28
6107 7631 7634 28
6108 7631 7635 28
6109 7636 7637 28
6110 7636 7638 28
6111 7636 7639 28
6112 7636 7640 28
6113 7641 7642 28
6114 7641 7643 28
6115 7641 7644 28
6116 7641 7645 28
6117 7646 7647 28
6118 7646 7648 28
6119 7646 7649 28
6120 7646 7650 28
6121 7651 7652 28
6122 7651 7653 28
6123 7651 7654 28
6124 7651 7655 28
6125 7656 7657 28
6126 7656 7658 28
6127 7656 7659 28
6128 7656 7660 28
6129 7661 7662 28
6130 7661 7663 28
6131 7661 7664 28
6132 7661 7665 28
6133 7666 7667 28
6134 7666 7668 28
6135 7666 7669 28
6136 7666 7670 28
6137 7671 7672 28
6138 7671 7673 28
6139 7671 7674 28
6140 7671 7675 28
6141 7676 7677 28
6142 7676 7678 28
6143 7676 7679 28
6144 7676 7680 28
6145 7681 7682 28
6146 7681 7683 28
6147 7681 7684 28
6148 7681 7685 28
6149 7686 7687 28
6150 7686 7688 28
6151 7686 7689 28
6152 7686 7690 28
6153 7691 7692 28
6154 7691 7693 28
6155 7691 7694 28
6156 7691 7695 28
6157 7696 7697 28
6158 7696 7698 28
6159 7696 7699 28
6160 7696 7700 28
6161 7701 7702 28
6162 7701 7703 28
6163 7701 7704 28
6164 7701 7705 28
6165 7706 7707 28
6166 7706 7708 28
6167 7706 7709 28
6168 7706 7710 28
6169 7711 7712 28
6170 7711 7713 28
6171 7711 7714 28
6172 7711 7715 28
6173 7716 7717 28
6174 7716 7718 28
6175 7716 7719 28
6176 7716 7720 28
6177 7721 7722 28
6178 7721 7723 28
6179 7721 7724 28
6180 7721 7725 28
6181 7726 7727 28
6182 7726 7728 28
6183 7726 7729 28
6184 7726 7730 28
6185 7731 7732 28
6186 7731 7733 28
6187 7731 7734 28
6188 7731 7735 28
6189 7736 7737 28
6190 7736 7738 28
6191 7736 7739 28
6192 7736 7740 28
6193 7741 7742 28
6194 7741 7743 28
6195 7741 7744 28
6196 7741 7745 28
6197 7746 7747 28
6198 7746 7748 28
6199 7746 7749 28
6200 7746 7750 28
6201 7751 7752 28
6202 7751 7753 28
6203 7751 7754 28
6204 7751 7755 28
6205 7756 7757 28
6206 7756 7758 28
6207 7756 7759 28
6208 7756 7760 28
6209 7761 7762 28
6210 7761 7763 28
6211 7761 7764 28
6212 7761 7765 28
6213 7766 7767 28
6214 7766 7768 28
6215 7766 7769 28
6216 7766 7770 28
6217 7771 7772 28
6218 7771 7773 28
6219 7771 7774 28
6220 7771 7775 28
6221 7776 7777 28
6222 7776 7778 28
6223 7776 7779 28
6224 7776 7780 28
6225 7781 7782 28
6226 7781 7783 28
6227 7781 7784 28
6228 7781 7785 28
6229 7786 7787 28
6230 7786 7788 28
6231 7786 7789 28
6232 7786 7790 28
6233 7791 7792 28
6234 7791 7793 28
6235 7791 7794 28
6236 7791 7795 28
6237 7796 7797 28
6238 7796 7798 28
6239 7796 7799 28
6240 7796 7800 28
6241 7801 7802 28
6242 7801 7803 28
6243 7801 7804 28
6244 7801 7805 28
6245 7806 7807 28
6246 7806 7808 28
6247 7806 7809 28
6248 7806 7810 28
6249 7811 7812 28
6250 7811 7813 28
6251 7811 7814 28
6252 7811 7815 28
6253 7816 7817 28
6254 7816 7818 28
6255 7816 7819 28
6256 7816 7820 28
6257 7821 7822 28
6258 7821 7823 28
6259 7821 7824 28
6260 7821 7825 28
6261 7826 7827 28
6262 7826 7828 28
6263 7826 7829 28
6264 7826 7830 28
6265 7831 7832 28
6266 7831 7833 28
6267 7831 7834 28
6268 7831 7835 28
6269 7836 7837 28
6270 7836 7838 28
6271 7836 7839 28
6272 7836 7840 28
6273 7841 7842 28
6274 7841 7843 28
6275 7841 7844 28
6276 7841 7845 28
6277 7846 7847 28
6278 7846 7848 28
6279 7846 7849 28
6280 7846 7850 28
6281 7851 7852 28
6282 7851 7853 28
6283 7851 7854 28
6284 7851 7855 28
6285 7856 7857 28
6286 7856 7858 28
6287 7856 7859 28
6288 7856 7860 28
6289 7861 7862 28
6290 7861 7863 28
6291 7861 7864 28
6292 7861 7865 28
6293 7866 7867 28
6294 7866 7868 28
6295 7866 7869 28
6296 7866 7870 28
6297 7871 7872 28
6298 7871 7873 28
6299 7871 7874 28
6300 7871 7875 28
6301 7876 7877 28
6302 7876 7878 28
6303 7876 7879 28
6304 7876 7880 28
6305 7881 7882 28
6306 7881 7883 28
6307 7881 7884 28
6308 7881 7885 28
6309 7886 7887 28
6310 7886 7888 28
6311 7886 7889 28
6312 7886 7890 28
6313 7891 7892 28
6314 7891 7893 28
6315 7891 7894 28
6316 7891 7895 28
6317 7896 7897 28
6318 7896 7898 28
6319 7896 7899 28
6320 7896 7900 28
6321 7901 7902 28
6322 7901 7903 28
6323 7901 7904 28
6324 7901 7905 28
6325 7906 7907 28
6326 7906 7908 28
6327 7906 7909 28
6328 7906 7910 28
6329 7911 7912 28
6330 7911 7913 28
6331 7911 7914 28
6332 7911 7915 28
6333 7916 7917 28
6334 7916 7918 28
6335 7916 7919 28
6336 7916 7920 28
6337 7921 7922 28
6338 7921 7923 28
6339 7921 7924 28
6340 7921 7925 28
6341 7926 7927 28
6342 7926 7928 28
6343 7926 7929 28
6344 7926 7930 28
6345 7931 7932 28
6346 7931 7933 28
6347 7931 7934 28
6348 7931 7935 28
6349 7936 7937 28
6350 7936 7938 28
6351 7936 7939 28
6352 7936 7940 28
6353 7941 7942 28
6354 7941 7943 28
6355 7941 7944 28
6356 7941 7945 28
6357 7946 7947 28
6358 7946 7948 28
6359 7946 7949 28
6360 7946 7950 28
6361 7951 7952 28
6362 7951 7953 28
6363 7951 7954 28
6364 7951 7955 28
6365 7956 7957 28
6366 7956 7958 28
6367 7956 7959 28
6368 7956 7960 28
6369 7961 7962 28
6370 7961 7963 28
6371 7961 7964 28
6372 7961 7965 28
6373 7966 7967 28
6374 7966 7968 28
6375 7966 7969 28
6376 7966 7970 28
6377 7971 7972 28
6378 7971 7973 28
6379 7971 7974 28
6380 7971 7975 28
6381 7976 7977 28
6382 7976 7978 28
6383 7976 7979 28
6384 7976 7980 28
6385 7981 7982 28
6386 7981 7983 28
6387 7981 7984 28
6388 7981 7985 28
6389 7986 7987 28
6390 7986 7988 28
6391 7986 7989 28
6392 7986 7990 28
6393 7991 7992 28
6394 7991 7993 28
6395 7991 7994 28
6396 7991 7995 28
6397 7996 7997 28
6398 7996 7998 28
6399 7996 7999 28
6400 7996 8000 28
6401 8001 8002 28
6402 8001 8003 28
6403 8001 8004 28
6404 8001 8005 28
6405 8006 8007 28
6406 8006 8008 28
6407 8006 8009 28
6408 8006 8010 28
6409 8011 8012 28
6410 8011 8013 28
6411 8011 8014 28
6412 8011 8015 28
6413 8016 8017 28
6414 8016 8018 28
6415 8016 8019 28
6416 8016 8020 28
6417 8021 8022 28
6418 8021 8023 28
6419 8021 8024 28
6420 8021 8025 28
6421 8026 8027 28
6422 8026 8028 28
6423 8026 8029 28
6424 8026 8030 28
6425 8031 8032 28
6426 8031 8033 28
6427 8031 8034 28
6428 8031 8035 28
6429 8036 8037 28
6430 8036 8038 28
6431 8036 8039 28
6432 8036 8040 28
6433 8041 8042 28
6434 8041 8043 28
6435 8041 8044 28
6436 8041 8045 28
6437 8046 8047 28
6438 8046 8048 28
6439 8046 8049 28
6440 8046 8050 28
6441 8051 8052 28
6442 8051 8053 28
6443 8051 8054 28
6444 8051 8055 28
6445 8056 8057 28
6446 8056 8058 28
6447 8056 8059 28
6448 8056 8060 28
6449 8061 8062 28
6450 8061 8063 28
6451 8061 8064 28
6452 8061 8065 28
6453 8066 8067 28
6454 8066 8068 28
6455 8066 8069 28
6456 8066 8070 28
6457 8071 8072 28
6458 8071 8073 28
6459 8071 8074 28
6460 8071 8075 28
6461 8076 8077 28
6462 8076 8078 28
6463 8076 8079 28
6464 8076 8080 28
6465 8081 8082 28
6466 8081 8083 28
6467 8081 8084 28
6468 8081 8085 28
6469 8086 8087 28
6470 8086 8088 28
6471 8086 8089 28
6472 8086 8090 28
6473 8091 8092 28
6474 8091 8093 28
6475 8091 8094 28
6476 8091 8095 28
6477 8096 8097 28
6478 8096 8098 28
6479 8096 8099 28
6480 8096 8100 28
6481 8101 8102 28
6482 8101 8103 28
6483 8101 8104 28
6484 8101 8105 28
6485 8106 8107 28
6486 8106 8108 28
6487 8106 8109 28
6488 8106 8110 28
6489 8111 8112 28
6490 8111 8113 28
6491 8111 8114 28
6492 8111 8115 28
6493 8116 8117 28
6494 8116 8118 28
6495 8116 8119 28
6496 8116 8120 28
6497 8121 8122 28
6498 8121 8123 28
6499 8121 8124 28
6500 8121 8125 28
6501 8126 8127 28
6502 8126 8128 28
6503 8126 8129 28
6504 8126 8130 28
6505 8131 8132 28
6506 8131 8133 28
6507 8131 8134 28
6508 8131 8135 28
6509 8136 8137 28
6510 8136 8138 28
6511 8136 8139 28
6512 8136 8140 28
6513 8141 8142 28
6514 8141 8143 28
6515 8141 8144 28
6516 8141 8145 28
6517 8146 8147 28
6518 8146 8148 28
6519 8146 8149 28
6520 8146 8150 28
6521 8151 8152 28
6522 8151 8153 28
6523 8151 8154 28
6524 8151 8155 28
6525 8156 8157 28
6526 8156 8158 28
6527 8156 8159 28
6528 8156 8160 28
6529 8161 8162 28
6530 8161 8163 28
6531 8161 8164 28
6532 8161 8165 28
6533 8166 8167 28
6534 8166 8168 28
6535 8166 8169 28
6536 8166 8170 28
6537 8171 8172 28
6538 8171 8173 28
6539 8171 8174 28
6540 8171 8175 28
6541 8176 8177 28
6542 8176 8178 28
6543 8176 8179 28
6544 8176 8180 28
6545 8181 8182 28
6546 8181 8183 28
6547 8181 8184 28
6548 8181 8185 28
6549 8186 8187 28
6550 8186 8188 28
6551 8186 8189 28
6552 8186 8190 28
6553 8191 8192 28
6554 8191 8193 28
6555 8191 8194 28
6556 8191 8195 28
6557 8196 8197 28
6558 8196 8198 28
6559 8196 8199 28
6560 8196 8200 28
6561 8201 8202 28
6562 8201 8203 28
6563 8201 8204 28
6564 8201 8205 28
6565 8206 8207 28
6566 8206 8208 28
6567 8206 8209 28
6568 8206 8210 28
6569 8211 8212 28
6570 8211 8213 28
6571 8211 8214 28
6572 8211 8215 28
6573 8216 8217 28
6574 8216 8218 28
6575 8216 8219 28
6576 8216 8220 28
6577 8221 8222 28
6578 8221 8223 28
6579 8221 8224 28
6580 8221 8225 28
6581 8226 8227 28
6582 8226 8228 28
6583 8226 8229 28
6584 8226 8230 28
6585 8231 8232 28
6586 8231 8233 28
6587 8231 8234 28
6588 8231 8235 28
6589 8236 8237 28
6590 8236 8238 28
6591 8236 8239 28
6592 8236 8240 28
6593 8241 8242 28
6594 8241 8243 28
6595 8241 8244 28
6596 8241 8245 28
6597 8246 8247 28
6598 8246 8248 28
6599 8246 8249 28
6600 8246 8250 28
6601 8251 8252 28
6602 8251 8253 28
6603 8251 8254 28
6604 8251 8255 28
6605 8256 8257 28
6606 8256 8258 28
6607 8256 8259 28
6608 8256 8260 28
6609 8261 8262 28
6610 8261 8263 28
6611 8261 8264 28
6612 8261 8265 28
6613 8266 8267 28
6614 8266 8268 28
6615 8266 8269 28
6616 8266 8270 28
6617 8271 8272 28
6618 8271 8273 28
6619 8271 8274 28
6620 8271 8275 28
6621 8276 8277 28
6622 8276 8278 28
6623 8276 8279 28
6624 8276 8280 28
6625 8281 8282 28
6626 8281 8283 28
6627 8281 8284 28
6628 8281 8285 28
6629 8286 8287 28
6630 8286 8288 28
6631 8286 8289 28
6632 8286 8290 28
6633 8291 8292 28
6634 8291 8293 28
6635 8291 8294 28
6636 8291 8295 28
6637 8296 8297 28
6638 8296 8298 28
6639 8296 8299 28
6640 8296 8300 28
6641 8301 8302 28
6642 8301 8303 28
6643 8301 8304 28
6644 8301 8305 28
6645 8306 8307 28
6646 8306 8308 28
6647 8306 8309 28
6648 8306 8310 28
6649 8311 8312 28
6650 8311 8313 28
6651 8311 8314 28
6652 8311 8315 28
6653 8316 8317 28
6654 8316 8318 28
6655 8316 8319 28
6656 8316 8320 28
6657 8321 8322 28
6658 8321 8323 28
6659 8321 8324 28
6660 8321 8325 28
6661 8326 8327 28
6662 8326 8328 28
6663 8326 8329 28
6664 8326 8330 28
6665 8331 8332 28
6666 8331 8333 28
6667 8331 8334 28
6668 8331 8335 28
6669 8336 8337 28
6670 8336 8338 28
6671 8336 8339 28
6672 8336 8340 28
6673 8341 8342 28
6674 8341 8343 28
6675 8341 8344 28
6676 8341 8345 28
6677 8346 8347 28
6678 8346 8348 28
6679 8346 8349 28
6680 8346 8350 28
6681 8351 8352 28
6682 8351 8353 28
6683 8351 8354 28
6684 8351 8355 28
6685 8356 8357 28
6686 8356 8358 28
6687 8356 8359 28
6688 8356 8360 28
6689 8361 8362 28
6690 8361 8363 28
6691 8361 8364 28
6692 8361 8365 28
6693 8366 8367 28
6694 8366 8368 28
6695 8366 8369 28
6696 8366 8370 28
6697 8371 8372 28
6698 8371 8373 28
6699 8371 8374 28
6700 8371 8375 28
6701 8376 8377 28
6702 8376 8378 28
6703 8376 8379 28
6704 8376 8380 28
6705 8381 8382 28
6706 8381 8383 28
6707 8381 8384 28
6708 8381 8385 28
6709 8386 8387 28
6710 8386 8388 28
6711 8386 8389 28
6712 8386 8390 28
6713 8391 8392 28
6714 8391 8393 28
6715 8391 8394 28
6716 8391 8395 28
6717 8396 8397 28
6718 8396 8398 28
6719 8396 8399 28
6720 8396 8400 28
6721 8401 8402 28
6722 8401 8403 28
6723 8401 8404 28
6724 8401 8405 28
6725 8406 8407 28
6726 8406 8408 28
6727 8406 8409 28
6728 8406 8410 28
6729 8411 8412 28
6730 8411 8413 28
6731 8411 8414 28
6732 8411 8415 28
6733 8416 8417 28
6734 8416 8418 28
6735 8416 8419 28
6736 8416 8420 28
6737 8421 8422 28
6738 8421 8423 28
6739 8421 8424 28
6740 8421 8425 28
6741 8426 8427 28
6742 8426 8428 28
6743 8426 8429 28
6744 8426 8430 28
6745 8431 8432 28
6746 8431 8433 28
6747 8431 8434 28
6748 8431 8435 28
6749 8436 8437 28
6750 8436 8438 28
6751 8436 8439 28
6752 8436 8440 28
6753 8441 8442 28
6754 8441 8443 28
6755 8441 8444 28
6756 8441 8445 28
6757 8446 8447 28
6758 8446 8448 28
6759 8446 8449 28
6760 8446 8450 28
6761 8451 8452 28
6762 8451 8453 28
6763 8451 8454 28
6764 8451 8455 28
6765 8456 8457 28
6766 8456 8458 28
6767 8456 8459 28
6768 8456 8460 28
6769 8461 8462 28
6770 8461 8463 28
6771 8461 8464 28
6772 8461 8465 28
6773 8466 8467 28
6774 8466 8468 28
6775 8466 8469 28
6776 8466 8470 28
6777 8471 8472 28
6778 8471 8473 28
6779 8471 8474 28
6780 8471 8475 28
6781 8476 8477 28
6782 8476 8478 28
6783 8476 8479 28
6784 8476 8480 28
6785 8481 8482 28
6786 8481 8483 28
6787 8481 8484 28
6788 8481 8485 28
6789 8486 8487 28
6790 8486 8488 28
6791 8486 8489 28
6792 8486 8490 28
6793 8491 8492 28
6794 8491 8493 28
6795 8491 8494 28
6796 8491 8495 28
6797 8496 8497 28
6798 8496 8498 28
6799 8496 8499 28
6800 8496 8500 28
6801 8501 8502 28
6802 8501 8503 28
6803 8501 8504 28
6804 8501 8505 28
6805 8506 8507 28
6806 8506 8508 28
6807 8506 8509 28
6808 8506 8510 28
6809 8511 8512 28
6810 8511 8513 28
6811 8511 8514 28
6812 8511 8515 28
6813 8516 8517 28
6814 8516 8518 28
6815 8516 8519 28
6816 8516 8520 28
6817 8521 8522 28
6818 8521 8523 28
6819 8521 8524 28
6820 8521 8525 28
6821 8526 8527 28
6822 8526 8528 28
6823 8526 8529 28
6824 8526 8530 28
6825 8531 8532 28
6826 8531 8533 28
6827 8531 8534 28
6828 8531 8535 28
6829 8536 8537 28
6830 8536 8538 28
6831 8536 8539 28
6832 8536 8540 28
6833 8541 8542 28
6834 8541 8543 28
6835 8541 8544 28
6836 8541 8545 28
6837 8546 8547 28
6838 8546 8548 28
6839 8546 8549 28
6840 8546 8550 28
6841 8551 8552 28
6842 8551 8553 28
6843 8551 8554 28
6844 8551 8555 28
6845 8556 8557 28
6846 8556 8558 28
6847 8556 8559 28
6848 8556 8560 28
6849 8561 8562 28
6850 8561 8563 28
6851 8561 8564 28
6852 8561 8565 28
6853 8566 8567 28
6854 8566 8568 28
6855 8566 8569 28
6856 8566 8570 28
6857 8571 8572 28
6858 8571 8573 28
6859 8571 8574 28
6860 8571 8575 28
6861 8576 8577 28
6862 8576 8578 28
6863 8576 8579 28
6864 8576 8580 28
6865 8581 8582 28
6866 8581 8583 28
6867 8581 8584 28
6868 8581 8585 28
6869 8586 8587 28
6870 8586 8588 28
6871 8586 8589 28
6872 8586 8590 28
6873 8591 8592 28
6874 8591 8593 28
6875 8591 8594 28
6876 8591 8595 28
6877 8596 8597 28
6878 8596 8598 28
6879 8596 8599 28
6880 8596 8600 28
6881 8601 8602 28
6882 8601 8603 28
6883 8601 8604 28
6884 8601 8605 28
6885 8606 8607 28
6886 8606 8608 28
6887 8606 8609 28
6888 8606 8610 28
6889 8611 8612 28
6890 8611 8613 28
6891 8611 8614 28
6892 8611 8615 28
6893 8616 8617 28
6894 8616 8618 28
6895 8616 8619 28
6896 8616 8620 28
6897 8621 8622 28
6898 8621 8623 28
6899 8621 8624 28
6900 8621 8625 28
6901 8626 8627 28
6902 8626 8628 28
6903 8626 8629 28
6904 8626 8630 28
6905 8631 8632 28
6906 8631 8633 28
6907 8631 8634 28
6908 8631 8635 28
6909 8636 8637 28
6910 8636 8638 28
6911 8636 8639 28
6912 8636 8640 28
6913 8641 8642 28
6914 8641 8643 28
6915 8641 8644 28
6916 8641 8645 28
6917 8646 8647 28
6918 8646 8648 28
6919 8646 8649 28
6920 8646 8650 28
6921 8651 8652 28
6922 8651 8653 28
6923 8651 8654 28
6924 8651 8655 28
6925 8656 8657 28
6926 8656 8658 28
6927 8656 8659 28
6928 8656 8660 28
6929 8661 8662 28
6930 8661 8663 28
6931 8661 8664 28
6932 8661 8665 28
6933 8666 8667 28
6934 8666 8668 28
6935 8666 8669 28
6936 8666 8670 28
6937 8671 8672 28
6938 8671 8673 28
6939 8671 8674 28
6940 8671 8675 28
6941 8676 8677 28
6942 8676 8678 28
6943 8676 8679 28
6944 8676 8680 28
6945 8681 8682 28
6946 8681 8683 28
6947 8681 8684 28
6948 8681 8685 28
6949 8686 8687 28
6950 8686 8688 28
6951 8686 8689 28
6952 8686 8690 28
6953 8691 8692 28
6954 8691 8693 28
6955 8691 8694 28
6956 8691 8695 28
6957 8696 8697 28
6958 8696 8698 28
6959 8696 8699 28
6960 8696 8700 28
6961 8701 8702 28
6962 8701 8703 28
6963 8701 8704 28
6964 8701 8705 28
6965 8706 8707 28
6966 8706 8708 28
6967 8706 8709 28
6968 8706 8710 28
6969 8711 8712 28
6970 8711 8713 28
6971 8711 8714 28
6972 8711 8715 28
6973 8716 8717 28
6974 8716 8718 28
6975 8716 8719 28
6976 8716 8720 28
6977 8721 8722 28
6978 8721 8723 28
6979 8721 8724 28
6980 8721 8725 28
6981 8726 8727 28
6982 8726 8728 28
6983 8726 8729 28
6984 8726 8730 28
6985 8731 8732 28
6986 8731 8733 28
6987 8731 8734 28
6988 8731 8735 28
6989 8736 8737 28
6990 8736 8738 28
6991 8736 8739 28
6992 8736 8740 28
6993 8741 8742 28
6994 8741 8743 28
6995 8741 8744 28
6996 8741 8745 28
6997 8746 8747 28
6998 8746 8748 28
6999 8746 8749 28
7000 8746 8750 28
7001 8751 8752 28
7002 8751 8753 28
7003 8751 8754 28
7004 8751 8755 28
7005 8756 8757 28
7006 8756 8758 28
7007 8756 8759 28
7008 8756 8760 28
7009 8761 8762 28
7010 8761 8763 28
7011 8761 8764 28
7012 8761 8765 28
7013 8766 8767 28
7014 8766 8768 28
7015 8766 8769 28
7016 8766 8770 28
7017 8771 8772 28
7018 8771 8773 28
7019 8771 8774 28
7020 8771 8775 28
7021 8776 8777 28
7022 8776 8778 28
7023 8776 8779 28
7024 8776 8780 28
7025 8781 8782 28
7026 8781 8783 28
7027 8781 8784 28
7028 8781 8785 28
7029 8786 8787 28
7030 8786 8788 28
7031 8786 8789 28
7032 8786 8790 28
7033 8791 8792 28
7034 8791 8793 28
7035 8791 8794 28
7036 8791 8795 28
7037 8796 8797 28
7038 8796 8798 28
7039 8796 8799 28
7040 8796 8800 28
7041 8801 8802 28
7042 8801 8803 28
7043 8801 8804 28
7044 8801 8805 28
7045 8806 8807 28
7046 8806 8808 28
7047 8806 8809 28
7048 8806 8810 28
7049 8811 8812 28
7050 8811 8813 28
7051 8811 8814 28
7052 8811 8815 28
7053 8816 8817 28
7054 8816 8818 28
7055 8816 8819 28
7056 8816 8820 28
7057 8821 8822 28
7058 8821 8823 28
7059 8821 8824 28
7060 8821 8825 28
7061 8826 8827 28
7062 8826 8828 28
7063 8826 8829 28
7064 8826 8830 28
7065 8831 8832 28
7066 8831 8833 28
7067 8831 8834 28
7068 8831 8835 28
7069 8836 8837 28
7070 8836 8838 28
7071 8836 8839 28
7072 8836 8840 28
7073 8841 8842 28
7074 8841 8843 28
7075 8841 8844 28
7076 8841 8845 28
7077 8846 8847 28
7078 8846 8848 28
7079 8846 8849 28
7080 8846 8850 28
7081 8851 8852 28
7082 8851 8853 28
7083 8851 8854 28
7084 8851 8855 28
7085 8856 8857 28
7086 8856 8858 28
7087 8856 8859 28
7088 8856 8860 28
7089 8861 8862 28
7090 8861 8863 28
7091 8861 8864 28
7092 8861 8865 28
7093 8866 8867 28
7094 8866 8868 28
7095 8866 8869 28
7096 8866 8870 28
7097 8871 8872 28
7098 8871 8873 28
7099 8871 8874 28
7100 8871 8875 28
7101 8876 8877 28
7102 8876 8878 28
7103 8876 8879 28
7104 8876 8880 28
7105 8881 8882 28
7106 8881 8883 28
7107 8881 8884 28
7108 8881 8885 28
7109 8886 8887 28
7110 8886 8888 28
7111 8886 8889 28
7112 8886 8890 28
7113 8891 8892 28
7114 8891 8893 28
7115 8891 8894 28
7116 8891 8895 28
7117 8896 8897 28
7118 8896 8898 28
7119 8896 8899 28
7120 8896 8900 28
7121 8901 8902 28
7122 8901 8903 28
7123 8901 8904 28
7124 8901 8905 28
7125 8906 8907 28
7126 8906 8908 28
7127 8906 8909 28
7128 8906 8910 28
7129 8911 8912 28
7130 8911 8913 28
7131 8911 8914 28
7132 8911 8915 28
7133 8916 8917 28
7134 8916 8918 28
7135 8916 8919 28
7136 8916 8920 28
7137 8921 8922 28
7138 8921 8923 28
7139 8921 8924 28
7140 8921 8925 28
7141 8926 8927 28
7142 8926 8928 28
7143 8926 8929 28
7144 8926 8930 28
7145 8931 8932 28
7146 8931 8933 28
7147 8931 8934 28
7148 8931 8935 28
7149 8936 8937 28
7150 8936 8938 28
7151 8936 8939 28
7152 8936 8940 28
7153 8941 8942 28
7154 8941 8943 28
7155 8941 8944 28
7156 8941 8945 28
7157 8946 8947 28
7158 8946 8948 28
7159 8946 8949 28
7160 8946 8950 28
7161 8951 8952 28
7162 8951 8953 28
7163 8951 8954 28
7164 8951 8955 28
7165 8956 8957 28
7166 8956 8958 28
7167 8956 8959 28
7168 8956 8960 28
7169 8961 8962 28
7170 8961 8963 28
7171 8961 8964 28
7172 8961 8965 28
7173 8966 8967 28
7174 8966 8968 28
7175 8966 8969 28
7176 8966 8970 28
7177 8971 8972 28
7178 8971 8973 28
7179 8971 8974 28
7180 8971 8975 28
7181 8976 8977 28
7182 8976 8978 28
7183 8976 8979 28
7184 8976 8980 28
7185 8981 8982 28
7186 8981 8983 28
7187 8981 8984 28
7188 8981 8985 28
7189 8986 8987 28
7190 8986 8988 28
7191 8986 8989 28
7192 8986 8990 28
7193 8991 8992 28
7194 8991 8993 28
7195 8991 8994 28
7196 8991 8995 28
7197 8996 8997 28
7198 8996 8998 28
7199 8996 8999 28
7200 8996 9000 28
7201 9001 9002 28
7202 9001 9003 28
7203 9001 9004 28
7204 9001 9005 28
7205 9006 9007 28
7206 9006 9008 28
7207 9006 9009 28
7208 9006 9010 28
7209 9011 9012 28
7210 9011 9013 28
7211 9011 9014 28
7212 9011 9015 28
7213 9016 9017 28
7214 9016 9018 28
7215 9016 9019 28
7216 9016 9020 28
7217 9021 9022 28
7218 9021 9023 28
7219 9021 9024 28
7220 9021 9025 28
7221 9026 9027 28
7222 9026 9028 28
7223 9026 9029 28
7224 9026 9030 28
7225 9031 9032 28
7226 9031 9033 28
7227 9031 9034 28
7228 9031 9035 28
7229 9036 9037 28
7230 9036 9038 28
7231 9036 9039 28
7232 9036 9040 28
7233 9041 9042 28
7234 9041 9043 28
7235 9041 9044 28
7236 9041 9045 28
7237 9046 9047 28
7238 9046 9048 28
7239 9046 9049 28
7240 9046 9050 28
7241 9051 9052 28
7242 9051 9053 28
7243 9051 9054 28
7244 9051 9055 28
7245 9056 9057 28
7246 9056 9058 28
7247 9056 9059 28
7248 9056 9060 28
7249 9061 9062 28
7250 9061 9063 28
7251 9061 9064 28
7252 9061 9065 28
7253 9066 9067 28
7254 9066 9068 28
7255 9066 9069 28
7256 9066 9070 28
7257 9071 9072 28
7258 9071 9073 28
7259 9071 9074 28
7260 9071 9075 28
7261 9076 9077 28
7262 9076 9078 28
7263 9076 9079 28
7264 9076 9080 28
7265 9081 9082 28
7266 9081 9083 28
7267 9081 9084 28
7268 9081 9085 28
7269 9086 9087 28
7270 9086 9088 28
7271 9086 9089 28
7272 9086 9090 28
7273 9091 9092 28
7274 9091 9093 28
7275 9091 9094 28
7276 9091 9095 28
7277 9096 9097 28
7278 9096 9098 28
7279 9096 9099 28
7280 9096 9100 28
7281 9101 9102 28
7282 9101 9103 28
7283 9101 9104 28
7284 9101 9105 28
7285 9106 9107 28
7286 9106 9108 28
7287 9106 9109 28
7288 9106 9110 28
7289 9111 9112 28
7290 9111 9113 28
7291 9111 9114 28
7292 9111 9115 28
7293 9116 9117 28
7294 9116 9118 28
7295 9116 9119 28
7296 9116 9120 28
7297 9121 9122 28
7298 9121 9123 28
7299 9121 9124 28
7300 9121 9125 28
7301 9126 9127 28
7302 9126 9128 28
7303 9126 9129 28
7304 9126 9130 28
7305 9131 9132 28
7306 9131 9133 28
7307 9131 9134 28
7308 9131 9135 28
7309 9136 9137 28
7310 9136 9138 28
7311 9136 9139 28
7312 9136 9140 28
7313 9141 9142 28
7314 9141 9143 28
7315 9141 9144 28
7316 9141 9145 28
7317 9146 9147 28
7318 9146 9148 28
7319 9146 9149 28
7320 9146 9150 28
7321 9151 9152 28
7322 9151 9153 28
7323 9151 9154 28
7324 9151 9155 28
7325 9156 9157 28
7326 9156 9158 28
7327 9156 9159 28
7328 9156 9160 28
7329 9161 9162 28
7330 9161 9163 28
7331 9161 9164 28
7332 9161 9165 28
7333 9166 9167 28
7334 9166 9168 28
7335 9166 9169 28
7336 9166 9170 28
7337 9171 9172 28
7338 9171 9173 28
7339 9171 9174 28
7340 9171 9175 28
7341 9176 9177 28
7342 9176 9178 28
7343 9176 9179 28
7344 9176 9180 28
7345 9181 9182 28
7346 9181 9183 28
7347 9181 9184 28
7348 9181 9185 28
7349 9186 9187 28
7350 9186 9188 28
7351 9186 9189 28
7352 9186 9190 28
7353 9191 9192 28
7354 9191 9193 28
7355 9191 9194 28
7356 9191 9195 28
7357 9196 9197 28
7358 9196 9198 28
7359 9196 9199 28
7360 9196 9200 28
7361 9201 9202 28
7362 9201 9203 28
7363 9201 9204 28
7364 9201 9205 28
7365 9206 9207 28
7366 9206 9208 28
7367 9206 9209 28
7368 9206 9210 28
7369 9211 9212 28
7370 9211 9213 28
7371 9211 9214 28
7372 9211 9215 28
7373 9216 9217 28
7374 9216 9218 28
7375 9216 9219 28
7376 9216 9220 28
7377 9221 9222 28
7378 9221 9223 28
7379 9221 9224 28
7380 9221 9225 28
7381 9226 9227 28
7382 9226 9228 28
7383 9226 9229 28
7384 9226 9230 28
7385 9231 9232 28
7386 9231 9233 28
7387 9231 9234 28
7388 9231 9235 28
7389 9236 9237 28
7390 9236 9238 28
7391 9236 9239 28
7392 9236 9240 28
7393 9241 9242 28
7394 9241 9243 28
7395 9241 9244 28
7396 9241 9245 28
7397 9246 9247 28
7398 9246 9248 28
7399 9246 9249 28
7400 9246 9250 28
7401 9251 9252 28
7402 9251 9253 28
7403 9251 9254 28
7404 9251 9255 28
7405 9256 9257 28
7406 9256 9258 28
7407 9256 9259 28
7408 9256 9260 28
7409 9261 9262 28
7410 9261 9263 28
7411 9261 9264 28
7412 9261 9265 28
7413 9266 9267 28
7414 9266 9268 28
7415 9266 9269 28
7416 9266 9270 28
7417 9271 9272 28
7418 9271 9273 28
7419 9271 9274 28
7420 9271 9275 28
7421 9276 9277 28
7422 9276 9278 28
7423 9276 9279 28
7424 9276 9280 28
7425 9281 9282 28
7426 9281 9283 28
7427 9281 9284 28
7428 9281 9285 28
7429 9286 9287 28
7430 9286 9288 28
7431 9286 9289 28
7432 9286 9290 28
7433 9291 9292 28
7434 9291 9293 28
7435 9291 9294 28
7436 9291 9295 28
7437 9296 9297 28
7438 9296 9298 28
7439 9296 9299 28
7440 9296 9300 28
7441 9301 9302 28
7442 9301 9303 28
7443 9301 9304 28
7444 9301 9305 28
7445 9306 9307 28
7446 9306 9308 28
7447 9306 9309 28
7448 9306 9310 28
7449 9311 9312 28
7450 9311 9313 28
7451 9311 9314 28
7452 9311 9315 28
7453 9316 9317 28
7454 9316 9318 28
7455 9316 9319 28
7456 9316 9320 28
7457 9321 9322 28
7458 9321 9323 28
7459 9321 9324 28
7460 9321 9325 28
7461 9326 9327 28
7462 9326 9328 28
7463 9326 9329 28
7464 9326 9330 28
7465 9331 9332 28
7466 9331 9333 28
7467 9331 9334 28
7468 9331 9335 28
7469 9336 9337 28
7470 9336 9338 28
7471 9336 9339 28
7472 9336 9340 28
7473 9341 9342 28
7474 9341 9343 28
7475 9341 9344 28
7476 9341 9345 28
7477 9346 9347 28
7478 9346 9348 28
7479 9346 9349 28
7480 9346 9350 28
7481 9351 9352 28
7482 9351 9353 28
7483 9351 9354 28
7484 9351 9355 28
7485 9356 9357 28
7486 9356 9358 28
7487 9356 9359 28
7488 9356 9360 28
7489 9361 9362 28
7490 9361 9363 28
7491 9361 9364 28
7492 9361 9365 28
7493 9366 9367 28
7494 9366 9368 28
7495 9366 9369 28
7496 9366 9370 28
7497 9371 9372 28
7498 9371 9373 28
7499 9371 9374 28
7500 9371 9375 28
7501 9376 9377 28
7502 9376 9378 28
7503 9376 9379 28
7504 9376 9380 28
7505 9381 9382 28
7506 9381 9383 28
7507 9381 9384 28
7508 9381 9385 28
7509 9386 9387 28
7510 9386 9388 28
7511 9386 9389 28
7512 9386 9390 28
7513 9391 9392 28
7514 9391 9393 28
7515 9391 9394 28
7516 9391 9395 28
7517 9396 9397 28
7518 9396 9398 28
7519 9396 9399 28
7520 9396 9400 28
7521 9401 9402 28
7522 9401 9403 28
7523 9401 9404 28
7524 9401 9405 28
7525 9406 9407 28
7526 9406 9408 28
7527 9406 9409 28
7528 9406 9410 28
7529 9411 9412 28
7530 9411 9413 28
7531 9411 9414 28
7532 9411 9415 28
7533 9416 9417 28
7534 9416 9418 28
7535 9416 9419 28
7536 9416 9420 28
7537 9421 9422 28
7538 9421 9423 28
7539 9421 9424 28
7540 9421 9425 28
7541 9426 9427 28
7542 9426 9428 28
7543 9426 9429 28
7544 9426 9430 28
7545 9431 9432 28
7546 9431 9433 28
7547 9431 9434 28
7548 9431 9435 28
7549 9436 9437 28
7550 9436 9438 28
7551 9436 9439 28
7552 9436 9440 28
7553 9441 9442 28
7554 9441 9443 28
7555 9441 9444 28
7556 9441 9445 28
7557 9446 9447 28
7558 9446 9448 28
7559 9446 9449 28
7560 9446 9450 28
7561 9451 9452 28
7562 9451 9453 28
7563 9451 9454 28
7564 9451 9455 28
7565 9456 9457 28
7566 9456 9458 28
7567 9456 9459 28
7568 9456 9460 28
7569 9461 9462 28
7570 9461 9463 28
7571 9461 9464 28
7572 9461 9465 28
7573 9466 9467 28
7574 9466 9468 28
7575 9466 9469 28
7576 9466 9470 28
7577 9471 9472 28
7578 9471 9473 28
7579 9471 9474 28
7580 9471 9475 28
7581 9476 9477 28
7582 9476 9478 28
7583 9476 9479 28
7584 9476 9480 28
7585 9481 9482 28
7586 9481 9483 28
7587 9481 9484 28
7588 9481 9485 28
7589 9486 9487 28
7590 9486 9488 28
7591 9486 9489 28
7592 9486 9490 28
7593 9491 9492 28
7594 9491 9493 28
7595 9491 9494 28
7596 9491 9495 28
7597 9496 9497 28
7598 9496 9498 28
7599 9496 9499 28
7600 9496 9500 28
7601 9501 9502 28
7602 9501 9503 28
7603 9501 9504 28
7604 9501 9505 28
7605 9506 9507 28
7606 9506 9508 28
7607 9506 9509 28
7608 9506 9510 28
7609 9511 9512 28
7610 9511 9513 28
7611 9511 9514 28
7612 9511 9515 28
7613 9516 9517 28
7614 9516 9518 28
7615 9516 9519 28
7616 9516 9520 28
7617 9521 9522 28
7618 9521 9523 28
7619 9521 9524 28
7620 9521 9525 28
7621 9526 9527 28
7622 9526 9528 28
7623 9526 9529 28
7624 9526 9530 28
7625 9531 9532 28
7626 9531 9533 28
7627 9531 9534 28
7628 9531 9535 28
7629 9536 9537 28
7630 9536 9538 28
7631 9536 9539 28
7632 9536 9540 28
7633 9541 9542 28
7634 9541 9543 28
7635 9541 9544 28
7636 9541 9545 28
7637 9546 9547 28
7638 9546 9548 28
7639 9546 9549 28
7640 9546 9550 28
7641 9551 9552 28
7642 9551 9553 28
7643 9551 9554 28
7644 9551 9555 28
7645 9556 9557 28
7646 9556 9558 28
7647 9556 9559 28
7648 9556 9560 28
7649 9561 9562 28
7650 9561 9563 28
7651 9561 9564 28
7652 9561 9565 28
7653 9566 9567 28
7654 9566 9568 28
7655 9566 9569 28
7656 9566 9570 28
7657 9571 9572 28
7658 9571 9573 28
7659 9571 9574 28
7660 9571 9575 28
7661 9576 9577 28
7662 9576 9578 28
7663 9576 9579 28
7664 9576 9580 28
7665 9581 9582 28
7666 9581 9583 28
7667 9581 9584 28
7668 9581 9585 28
7669 9586 9587 28
7670 9586 9588 28
7671 9586 9589 28
7672 9586 9590 28
7673 9591 9592 28
7674 9591 9593 28
7675 9591 9594 28
7676 9591 9595 28
7677 9596 9597 28
7678 9596 9598 28
7679 9596 9599 28
7680 9596 9600 28
7681 9601 9602 28
7682 9601 9603 28
7683 9601 9604 28
7684 9601 9605 28
7685 9606 9607 28
7686 9606 9608 28
7687 9606 9609 28
7688 9606 9610 28
7689 9611 9612 28
7690 9611 9613 28
7691 9611 9614 28
7692 9611 9615 28
7693 9616 9617 28
7694 9616 9618 28
7695 9616 9619 28
7696 9616 9620 28
7697 9621 9622 28
7698 9621 9623 28
7699 9621 9624 28
7700 9621 9625 28
7701 9626 9627 28
7702 9626 9628 28
7703 9626 9629 28
7704 9626 9630 28
7705 9631 9632 28
7706 9631 9633 28
7707 9631 9634 28
7708 9631 9635 28
7709 9636 9637 28
7710 9636 9638 28
7711 9636 9639 28
7712 9636 9640 28
7713 9641 9642 28
7714 9641 9643 28
7715 9641 9644 28
7716 9641 9645 28
7717 9646 9647 28
7718 9646 9648 28
7719 9646 9649 28
7720 9646 9650 28
7721 9651 9652 28
7722 9651 9653 28
7723 9651 9654 28
7724 9651 9655 28
7725 9656 9657 28
7726 9656 9658 28
7727 9656 9659 28
7728 9656 9660 28
7729 9661 9662 28
7730 9661 9663 28
7731 9661 9664 28
7732 9661 9665 28
7733 9666 9667 28
7734 9666 9668 28
7735 9666 9669 28
7736 9666 9670 28
7737 9671 9672 28
7738 9671 9673 28
7739 9671 9674 28
7740 9671 9675 28
7741 9676 9677 28
7742 9676 9678 28
7743 9676 9679 28
7744 9676 9680 28
7745 9681 9682 28
7746 9681 9683 28
7747 9681 9684 28
7748 9681 9685 28
7749 9686 9687 28
7750 9686 9688 28
7751 9686 9689 28
7752 9686 9690 28
7753 9691 9692 28
7754 9691 9693 28
7755 9691 9694 28
7756 9691 9695 28
7757 9696 9697 28
7758 9696 9698 28
7759 9696 9699 28
7760 9696 9700 28
7761 9701 9702 28
7762 9701 9703 28
7763 9701 9704 28
7764 9701 9705 28
7765 9706 9707 28
7766 9706 9708 28
7767 9706 9709 28
7768 9706 9710 28
7769 9711 9712 28
7770 9711 9713 28
7771 9711 9714 28
7772 9711 9715 28
7773 9716 9717 28
7774 9716 9718 28
7775 9716 9719 28
7776 9716 9720 28
7777 9721 9722 28
7778 9721 9723 28
7779 9721 9724 28
7780 9721 9725 28
7781 9726 9727 28
7782 9726 9728 28
7783 9726 9729 28
7784 9726 9730 28
7785 9731 9732 28
7786 9731 9733 28
7787 9731 9734 28
7788 9731 9735 28
7789 9736 9737 28
7790 9736 9738 28
7791 9736 9739 28
7792 9736 9740 28
7793 9741 9742 28
7794 9741 9743 28
7795 9741 9744 28
7796 9741 9745 28
7797 9746 9747 28
7798 9746 9748 28
7799 9746 9749 28
7800 9746 9750 28
7801 9751 9752 28
7802 9751 9753 28
7803 9751 9754 28
7804 9751 9755 28
7805 9756 9757 28
7806 9756 9758 28
7807 9756 9759 28
7808 9756 9760 28
7809 9761 9762 28
7810 9761 9763 28
7811 9761 9764 28
7812 9761 9765 28
7813 9766 9767 28
7814 9766 9768 28
7815 9766 9769 28
7816 9766 9770 28
7817 9771 9772 28
7818 9771 9773 28
7819 9771 9774 28
7820 9771 9775 28
7821 9776 9777 28
7822 9776 9778 28
7823 9776 9779 28
7824 9776 9780 28
7825 9781 9782 28
7826 9781 9783 28
7827 9781 9784 28
7828 9781 9785 28
7829 9786 9787 28
7830 9786 9788 28
7831 9786 9789 28
7832 9786 9790 28
7833 9791 9792 28
7834 9791 9793 28
7835 9791 9794 28
7836 9791 9795 28
7837 9796 9797 28
7838 9796 9798 28
7839 9796 9799 28
7840 9796 9800 28
7841 9801 9802 28
7842 9801 9803 28
7843 9801 9804 28
7844 9801 9805 28
7845 9806 9807 28
7846 9806 9808 28
7847 9806 9809 28
7848 9806 9810 28
7849 9811 9812 28
7850 9811 9813 28
7851 9811 9814 28
7852 9811 9815 28
7853 9816 9817 28
7854 9816 9818 28
7855 9816 9819 28
7856 9816 9820 28
7857 9821 9822 28
7858 9821 9823 28
7859 9821 9824 28
7860 9821 9825 28
7861 9826 9827 28
7862 9826 9828 28
7863 9826 9829 28
7864 9826 9830 28
7865 9831 9832 28
7866 9831 9833 28
7867 9831 9834 28
7868 9831 9835 28
7869 9836 9837 28
7870 9836 9838 28
7871 9836 9839 28
7872 9836 9840 28
7873 9841 9842 28
7874 9841 9843 28
7875 9841 9844 28
7876 9841 9845 28
7877 9846 9847 28
7878 9846 9848 28
7879 9846 9849 28
7880 9846 9850 28
7881 9851 9852 28
7882 9851 9853 28
7883 9851 9854 28
7884 9851 9855 28
7885 9856 9857 28
7886 9856 9858 28
7887 9856 9859 28
7888 9856 9860 28
7889 9861 9862 28
7890 9861 9863 28
7891 9861 9864 28
7892 9861 9865 28
7893 9866 9867 28
7894 9866 9868 28
7895 9866 9869 28
7896 9866 9870 28
7897 9871 9872 28
7898 9871 9873 28
7899 9871 9874 28
7900 9871 9875 28
7901 9876 9877 28
7902 9876 9878 28
7903 9876 9879 28
7904 9876 9880 28
7905 9881 9882 28
7906 9881 9883 28
7907 9881 9884 28
7908 9881 9885 28
7909 9886 9887 28
7910 9886 9888 28
7911 9886 9889 28
7912 9886 9890 28
7913 9891 9892 28
7914 9891 9893 28
7915 9891 9894 28
7916 9891 9895 28
7917 9896 9897 28
7918 9896 9898 28
7919 9896 9899 28
7920 9896 9900 28
7921 9901 9902 28
7922 9901 9903 28
7923 9901 9904 28
7924 9901 9905 28
7925 9906 9907 28
7926 9906 9908 28
7927 9906 9909 28
7928 9906 9910 28
7929 9911 9912 28
7930 9911 9913 28
7931 9911 9914 28
7932 9911 9915 28
7933 9916 9917 28
7934 9916 9918 28
7935 9916 9919 28
7936 9916 9920 28
7937 9921 9922 28
7938 9921 9923 28
7939 9921 9924 28
7940 9921 9925 28
7941 9926 9927 28
7942 9926 9928 28
7943 9926 9929 28
7944 9926 9930 28
7945 9931 9932 28
7946 9931 9933 28
7947 9931 9934 28
7948 9931 9935 28
7949 9936 9937 28
7950 9936 9938 28
7951 9936 9939 28
7952 9936 9940 28
7953 9941 9942 28
7954 9941 9943 28
7955 9941 9944 28
7956 9941 9945 28
7957 9946 9947 28
7958 9946 9948 28
7959 9946 9949 28
7960 9946 9950 28
7961 9951 9952 28
7962 9951 9953 28
7963 9951 9954 28
7964 9951 9955 28
7965 9956 9957 28
7966 9956 9958 28
7967 9956 9959 28
7968 9956 9960 28
7969 9961 9962 28
7970 9961 9963 28
7971 9961 9964 28
7972 9961 9965 28
7973 9966 9967 28
7974 9966 9968 28
7975 9966 9969 28
7976 9966 9970 28
7977 9971 9972 28
7978 9971 9973 28
7979 9971 9974 28
7980 9971 9975 28
7981 9976 9977 28
7982 9976 9978 28
7983 9976 9979 28
7984 9976 9980 28
7985 9981 9982 28
7986 9981 9983 28
7987 9981 9984 28
7988 9981 9985 28
7989 9986 9987 28
7990 9986 9988 28
7991 9986 9989 28
7992 9986 9990 28
7993 9991 9992 28
7994 9991 9993 28
7995 9991 9994 28
7996 9991 9995 28
7997 9996 9997 28
7998 9996 9998 28
7999 9996 9999 28
8000 9996 10000 28
8001 10001 10002 28
8002 10001 10003 28
8003 10001 10004 28
8004 10001 10005 28
8005 10006 10007 28
8006 10006 10008 28
8007 10006 10009 28
8008 10006 10010 28
8009 10011 10012 28
8010 10011 10013 28
8011 10011 10014 28
8012 10011 10015 28
8013 10016 10017 28
8014 10016 10018 28
8015 10016 10019 28
8016 10016 10020 28
8017 10021 10022 28
8018 10021 10023 28
8019 10021 10024 28
8020 10021 10025 28
8021 10026 10027 28
8022 10026 10028 28
8023 10026 10029 28
8024 10026 10030 28
8025 10031 10032 28
8026 10031 10033 28
8027 10031 10034 28
8028 10031 10035 28
8029 10036 10037 28
8030 10036 10038 28
8031 10036 10039 28
8032 10036 10040 28
8033 10041 10042 28
8034 10041 10043 28
8035 10041 10044 28
8036 10041 10045 28
8037 10046 10047 28
8038 10046 10048 28
8039 10046 10049 28
8040 10046 10050 28
8041 10051 10052 28
8042 10051 10053 28
8043 10051 10054 28
8044 10051 10055 28
8045 10056 10057 28
8046 10056 10058 28
8047 10056 10059 28
8048 10056 10060 28
8049 10061 10062 28
8050 10061 10063 28
8051 10061 10064 28
8052 10061 10065 28
8053 10066 10067 28
8054 10066 10068 28
8055 10066 10069 28
8056 10066 10070 28
8057 10071 10072 28
8058 10071 10073 28
8059 10071 10074 28
8060 10071 10075 28
8061 10076 10077 28
8062 10076 10078 28
8063 10076 10079 28
8064 10076 10080 28
8065 10081 10082 28
8066 10081 10083 28
8067 10081 10084 28
8068 10081 10085 28
8069 10086 10087 28
8070 10086 10088 28
8071 10086 10089 28
8072 10086 10090 28
8073 10091 10092 28
8074 10091 10093 28
8075 10091 10094 28
8076 10091 10095 28
8077 10096 10097 28
8078 10096 10098 28
8079 10096 10099 28
8080 10096 10100 28
8081 10101 10102 28
8082 10101 10103 28
8083 10101 10104 28
8084 10101 10105 28
8085 10106 10107 28
8086 10106 10108 28
8087 10106 10109 28
8088 10106 10110 28
8089 10111 10112 28
8090 10111 10113 28
8091 10111 10114 28
8092 10111 10115 28
8093 10116 10117 28
8094 10116 10118 28
8095 10116 10119 28
8096 10116 10120 28
8097 10121 10122 28
8098 10121 10123 28
8099 10121 10124 28
8100 10121 10125 28
8101 10126 10127 28
8102 10126 10128 28
8103 10126 10129 28
8104 10126 10130 28
8105 10131 10132 28
8106 10131 10133 28
8107 10131 10134 28
8108 10131 10135 28
8109 10136 10137 28
8110 10136 10138 28
8111 10136 10139 28
8112 10136 10140 28
8113 10141 10142 28
8114 10141 10143 28
8115 10141 10144 28
8116 10141 10145 28
8117 10146 10147 28
8118 10146 10148 28
8119 10146 10149 28
8120 10146 10150 28
8121 10151 10152 28
8122 10151 10153 28
8123 10151 10154 28
8124 10151 10155 28
8125 10156 10157 28
8126 10156 10158 28
8127 10156 10159 28
8128 10156 10160 28
8129 10161 10162 28
8130 10161 10163 28
8131 10161 10164 28
8132 10161 10165 28
8133 10166 10167 28
8134 10166 10168 28
8135 10166 10169 28
8136 10166 10170 28
8137 10171 10172 28
8138 10171 10173 28
8139 10171 10174 28
8140 10171 10175 28
8141 10176 10177 28
8142 10176 10178 28
8143 10176 10179 28
8144 10176 10180 28
8145 10181 10182 28
8146 10181 10183 28
8147 10181 10184 28
8148 10181 10185 28
8149 10186 10187 28
8150 10186 10188 28
8151 10186 10189 28
8152 10186 10190 28
8153 10191 10192 28
8154 10191 10193 28
8155 10191 10194 28
8156 10191 10195 28
8157 10196 10197 28
8158 10196 10198 28
8159 10196 10199 28
8160 10196 10200 28
8161 10201 10202 28
8162 10201 10203 28
8163 10201 10204 28
8164 10201 10205 28
8165 10206 10207 28
8166 10206 10208 28
8167 10206 10209 28
8168 10206 10210 28
8169 10211 10212 28
8170 10211 10213 28
8171 10211 10214 28
8172 10211 10215 28
8173 10216 10217 28
8174 10216 10218 28
8175 10216 10219 28
8176 10216 10220 28
8177 10221 10222 28
8178 10221 10223 28
8179 10221 10224 28
8180 10221 10225 28
8181 10226 10227 28
8182 10226 10228 28
8183 10226 10229 28
8184 10226 10230 28
8185 10231 10232 28
8186 10231 10233 28
8187 10231 10234 28
8188 10231 10235 28
8189 10236 10237 28
8190 10236 10238 28
8191 10236 10239 28
8192 10236 10240 28
8193 10241 10242 28
8194 10241 10243 28
8195 10241 10244 28
8196 10241 10245 28
8197 10246 10247 28
8198 10246 10248 28
8199 10246 10249 28
8200 10246 10250 28
8201 10251 10252 28
8202 10251 10253 28
8203 10251 10254 28
8204 10251 10255 28
8205 10256 10257 28
8206 10256 10258 28
8207 10256 10259 28
8208 10256 10260 28
8209 10261 10262 28
8210 10261 10263 28
8211 10261 10264 28
8212 10261 10265 28
8213 10266 10267 28
8214 10266 10268 28
8215 10266 10269 28
8216 10266 10270 28
8217 10271 10272 28
8218 10271 10273 28
8219 10271 10274 28
8220 10271 10275 28
8221 10276 10277 28
8222 10276 10278 28
8223 10276 10279 28
8224 10276 10280 28
8225 10281 10282 28
8226 10281 10283 28
8227 10281 10284 28
8228 10281 10285 28
8229 10286 10287 28
8230 10286 10288 28
8231 10286 10289 28
8232 10286 10290 28
8233 10291 10292 28
8234 10291 10293 28
8235 10291 10294 28
8236 10291 10295 28
8237 10296 10297 28
8238 10296 10298 28
8239 10296 10299 28
8240 10296 10300 28
8241 10301 10302 28
8242 10301 10303 28
8243 10301 10304 28
8244 10301 10305 28
8245 10306 10307 28
8246 10306 10308 28
8247 10306 10309 28
8248 10306 10310 28
8249 10311 10312 28
8250 10311 10313 28
8251 10311 10314 28
8252 10311 10315 28
8253 10316 10317 28
8254 10316 10318 28
8255 10316 10319 28
8256 10316 10320 28
8257 10321 10322 28
8258 10321 10323 28
8259 10321 10324 28
8260 10321 10325 28
8261 10326 10327 28
8262 10326 10328 28
8263 10326 10329 28
8264 10326 10330 28
8265 10331 10332 28
8266 10331 10333 28
8267 10331 10334 28
8268 10331 10335 28
8269 10336 10337 28
8270 10336 10338 28
8271 10336 10339 28
8272 10336 10340 28
8273 10341 10342 28
8274 10341 10343 28
8275 10341 10344 28
8276 10341 10345 28
8277 10346 10347 28
8278 10346 10348 28
8279 10346 10349 28
8280 10346 10350 28
8281 10351 10352 28
8282 10351 10353 28
8283 10351 10354 28
8284 10351 10355 28
8285 10356 10357 28
8286 10356 10358 28
8287 10356 10359 28
8288 10356 10360 28
8289 10361 10362 28
8290 10361 10363 28
8291 10361 10364 28
8292 10361 10365 28
8293 10366 10367 28
8294 10366 10368 28
8295 10366 10369 28
8296 10366 10370 28
8297 10371 10372 28
8298 10371 10373 28
8299 10371 10374 28
8300 10371 10375 28
8301 10376 10377 28
8302 10376 10378 28
8303 10376 10379 28
8304 10376 10380 28
8305 10381 10382 28
8306 10381 10383 28
8307 10381 10384 28
8308 10381 10385 28
8309 10386 10387 28
8310 10386 10388 28
8311 10386 10389 28
8312 10386 10390 28
8313 10391 10392 28
8314 10391 10393 28
8315 10391 10394 28
8316 10391 10395 28
8317 10396 10397 28
8318 10396 10398 28
8319 10396 10399 28
8320 10396 10400 28
8321 10401 10402 28
8322 10401 10403 28
8323 10401 10404 28
8324 10401 10405 28
8325 10406 10407 28
8326 10406 10408 28
8327 10406 10409 28
8328 10406 10410 28
8329 10411 10412 28
8330 10411 10413 28
8331 10411 10414 28
8332 10411 10415 28
8333 10416 10417 28
8334 10416 10418 28
8335 10416 10419 28
8336 10416 10420 28
8337 10421 10422 28
8338 10421 10423 28
8339 10421 10424 28
8340 10421 10425 28
8341 10426 10427 28
8342 10426 10428 28
8343 10426 10429 28
8344 10426 10430 28
8345 10431 10432 28
8346 10431 10433 28
8347 10431 10434 28
8348 10431 10435 28
8349 10436 10437 28
8350 10436 10438 28
8351 10436 10439 28
8352 10436 10440 28
8353 10441 10442 28
8354 10441 10443 28
8355 10441 10444 28
8356 10441 10445 28
8357 10446 10447 28
8358 10446 10448 28
8359 10446 10449 28
8360 10446 10450 28
8361 10451 10452 28
8362 10451 10453 28
8363 10451 10454 28
8364 10451 10455 28
8365 10456 10457 28
8366 10456 10458 28
8367 10456 10459 28
8368 10456 10460 28
8369 10461 10462 28
8370 10461 10463 28
8371 10461 10464 28
8372 10461 10465 28
8373 10466 10467 28
8374 10466 10468 28
8375 10466 10469 28
8376 10466 10470 28
8377 10471 10472 28
8378 10471 10473 28
8379 10471 10474 28
8380 10471 10475 28
8381 10476 10477 28
8382 10476 10478 28
8383 10476 10479 28
8384 10476 10480 28
8385 10481 10482 28
8386 10481 10483 28
8387 10481 10484 28
8388 10481 10485 28
8389 10486 10487 28
8390 10486 10488 28
8391 10486 10489 28
8392 10486 10490 28
8393 10491 10492 28
8394 10491 10493 28
8395 10491 10494 28
8396 10491 10495 28
8397 10496 10497 28
8398 10496 10498 28
8399 10496 10499 28
8400 10496 10500 28
8401 10501 10502 28
8402 10501 10503 28
8403 10501 10504 28
8404 10501 10505 28
8405 10506 10507 28
8406 10506 10508 28
8407 10506 10509 28
8408 10506 10510 28
8409 10511 10512 28
8410 10511 10513 28
8411 10511 10514 28
8412 10511 10515 28
8413 10516 10517 28
8414 10516 10518 28
8415 10516 10519 28
8416 10516 10520 28
8417 10521 10522 28
8418 10521 10523 28
8419 10521 10524 28
8420 10521 10525 28
8421 10526 10527 28
8422 10526 10528 28
8423 10526 10529 28
8424 10526 10530 28
8425 10531 10532 28
8426 10531 10533 28
8427 10531 10534 28
8428 10531 10535 28
8429 10536 10537 28
8430 10536 10538 28
8431 10536 10539 28
8432 10536 10540 28
8433 10541 10542 28
8434 10541 10543 28
8435 10541 10544 28
8436 10541 10545 28
8437 10546 10547 28
8438 10546 10548 28
8439 10546 10549 28
8440 10546 10550 28
8441 10551 10552 28
8442 10551 10553 28
8443 10551 10554 28
8444 10551 10555 28
8445 10556 10557 28
8446 10556 10558 28
8447 10556 10559 28
8448 10556 10560 28
8449 10561 10562 28
8450 10561 10563 28
8451 10561 10564 28
8452 10561 10565 28
8453 10566 10567 28
8454 10566 10568 28
8455 10566 10569 28
8456 10566 10570 28
8457 10571 10572 28
8458 10571 10573 28
8459 10571 10574 28
8460 10571 10575 28
8461 10576 10577 28
8462 10576 10578 28
8463 10576 10579 28
8464 10576 10580 28
8465 10581 10582 28
8466 10581 10583 28
8467 10581 10584 28
8468 10581 10585 28
8469 10586 10587 28
8470 10586 10588 28
8471 10586 10589 28
8472 10586 10590 28
8473 10591 10592 28
8474 10591 10593 28
8475 10591 10594 28
8476 10591 10595 28
8477 10596 10597 28
8478 10596 10598 28
8479 10596 10599 28
8480 10596 10600 28
8481 10601 10602 28
8482 10601 10603 28
8483 10601 10604 28
8484 10601 10605 28
8485 10606 10607 28
8486 10606 10608 28
8487 10606 10609 28
8488 10606 10610 28
8489 10611 10612 28
8490 10611 10613 28
8491 10611 10614 28
8492 10611 10615 28
8493 10616 10617 28
8494 10616 10618 28
8495 10616 10619 28
8496 10616 10620 28
8497 10621 10622 28
8498 10621 10623 28
8499 10621 10624 28
8500 10621 10625 28
8501 10626 10627 28
8502 10626 10628 28
8503 10626 10629 28
8504 10626 10630 28
8505 10631 10632 28
8506 10631 10633 28
8507 10631 10634 28
8508 10631 10635 28
8509 10636 10637 28
8510 10636 10638 28
8511 10636 10639 28
8512 10636 10640 28
8513 10641 10642 28
8514 10641 10643 28
8515 10641 10644 28
8516 10641 10645 28
8517 10646 10647 28
8518 10646 10648 28
8519 10646 10649 28
8520 10646 10650 28
8521 10651 10652 28
8522 10651 10653 28
8523 10651 10654 28
8524 10651 10655 28
8525 10656 10657 28
8526 10656 10658 28
8527 10656 10659 28
8528 10656 10660 28
8529 10661 10662 28
8530 10661 10663 28
8531 10661 10664 28
8532 10661 10665 28
8533 10666 10667 28
8534 10666 10668 28
8535 10666 10669 28
8536 10666 10670 28
8537 10671 10672 28
8538 10671 10673 28
8539 10671 10674 28
8540 10671 10675 28
8541 10676 10677 28
8542 10676 10678 28
8543 10676 10679 28
8544 10676 10680 28
8545 10681 10682 28
8546 10681 10683 28
8547 10681 10684 28
8548 10681 10685 28
8549 10686 10687 28
8550 10686 10688 28
8551 10686 10689 28
8552 10686 10690 28
8553 10691 10692 28
8554 10691 10693 28
8555 10691 10694 28
8556 10691 10695 28
8557 10696 10697 28
8558 10696 10698 28
8559 10696 10699 28
8560 10696 10700 28
8561 10701 10702 28
8562 10701 10703 28
8563 10701 10704 28
8564 10701 10705 28
8565 10706 10707 28
8566 10706 10708 28
8567 10706 10709 28
8568 10706 10710 28
8569 10711 10712 28
8570 10711 10713 28
8571 10711 10714 28
8572 10711 10715 28
8573 10716 10717 28
8574 10716 10718 28
8575 10716 10719 28
8576 10716 10720 28
8577 10721 10722 28
8578 10721 10723 28
8579 10721 10724 28
8580 10721 10725 28
8581 10726 10727 28
8582 10726 10728 28
8583 10726 10729 28
8584 10726 10730 28
8585 10731 10732 28
8586 10731 10733 28
8587 10731 10734 28
8588 10731 10735 28
8589 10736 10737 28
8590 10736 10738 28
8591 10736 10739 28
8592 10736 10740 28
8593 10741 10742 28
8594 10741 10743 28
8595 10741 10744 28
8596 10741 10745 28
8597 10746 10747 28
8598 10746 10748 28
8599 10746 10749 28
8600 10746 10750 28
8601 10751 10752 28
8602 10751 10753 28
8603 10751 10754 28
8604 10751 10755 28
8605 10756 10757 28
8606 10756 10758 28
8607 10756 10759 28
8608 10756 10760 28
8609 10761 10762 28
8610 10761 10763 28
8611 10761 10764 28
8612 10761 10765 28
8613 10766 10767 28
8614 10766 10768 28
8615 10766 10769 28
8616 10766 10770 28
8617 10771 10772 28
8618 10771 10773 28
8619 10771 10774 28
8620 10771 10775 28
8621 10776 10777 28
8622 10776 10778 28
8623 10776 10779 28
8624 10776 10780 28
8625 10781 10782 28
8626 10781 10783 28
8627 10781 10784 28
8628 10781 10785 28
8629 10786 10787 28
8630 10786 10788 28
8631 10786 10789 28
8632 10786 10790 28
8633 10791 10792 28
8634 10791 10793 28
8635 10791 10794 28
8636 10791 10795 28
8637 10796 10797 28
8638 10796 10798 28
8639 10796 10799 28
8640 10796 10800 28
8641 10801 10802 28
8642 10801 10803 28
8643 10801 10804 28
8644 10801 10805 28
8645 10806 10807 28
8646 10806 10808 28
8647 10806 10809 28
8648 10806 10810 28
8649 10811 10812 28
8650 10811 10813 28
8651 10811 10814 28
8652 10811 10815 28
8653 10816 10817 28
8654 10816 10818 28
8655 10816 10819 28
8656 10816 10820 28
8657 10821 10822 28
8658 10821 10823 28
8659 10821 10824 28
8660 10821 10825 28
8661 10826 10827 28
8662 10826 10828 28
8663 10826 10829 28
8664 10826 10830 28
8665 10831 10832 28
8666 10831 10833 28
8667 10831 10834 28
8668 10831 10835 28
8669 10836 10837 28
8670 10836 10838 28
8671 10836 10839 28
8672 10836 10840 28
8673 10841 10842 28
8674 10841 10843 28
8675 10841 10844 28
8676 10841 10845 28
8677 10846 10847 28
8678 10846 10848 28
8679 10846 10849 28
8680 10846 10850 28
8681 10851 10852 28
8682 10851 10853 28
8683 10851 10854 28
8684 10851 10855 28
8685 10856 10857 28
8686 10856 10858 28
8687 10856 10859 28
8688 10856 10860 28
8689 10861 10862 28
8690 10861 10863 28
8691 10861 10864 28
8692 10861 10865 28
8693 10866 10867 28
8694 10866 10868 28
8695 10866 10869 28
8696 10866 10870 28
8697 10871 10872 28
8698 10871 10873 28
8699 10871 10874 28
8700 10871 10875 28
8701 10876 10877 28
8702 10876 10878 28
8703 10876 10879 28
8704 10876 10880 28
8705 10881 10882 28
8706 10881 10883 28
8707 10881 10884 28
8708 10881 10885 28
8709 10886 10887 28
8710 10886 10888 28
8711 10886 10889 28
8712 10886 10890 28
8713 10891 10892 28
8714 10891 10893 28
8715 10891 10894 28
8716 10891 10895 28
8717 10896 10897 28
8718 10896 10898 28
8719 10896 10899 28
8720 10896 10900 28
8721 10901 10902 28
8722 10901 10903 28
8723 10901 10904 28
8724 10901 10905 28
8725 10906 10907 28
8726 10906 10908 28
8727 10906 10909 28
8728 10906 10910 28
8729 10911 10912 28
8730 10911 10913 28
8731 10911 10914 28
8732 10911 10915 28
8733 10916 10917 28
8734 10916 10918 28
8735 10916 10919 28
8736 10916 10920 28
8737 10921 10922 28
8738 10921 10923 28
8739 10921 10924 28
8740 10921 10925 28
8741 10926 10927 28
8742 10926 10928 28
8743 10926 10929 28
8744 10926 10930 28
8745 10931 10932 28
8746 10931 10933 28
8747 10931 10934 28
8748 10931 10935 28
8749 10936 10937 28
8750 10936 10938 28
8751 10936 10939 28
8752 10936 10940 28
8753 10941 10942 28
8754 10941 10943 28
8755 10941 10944 28
8756 10941 10945 28
8757 10946 10947 28
8758 10946 10948 28
8759 10946 10949 28
8760 10946 10950 28
8761 10951 10952 28
8762 10951 10953 28
8763 10951 10954 28
8764 10951 10955 28
8765 10956 10957 28
8766 10956 10958 28
8767 10956 10959 28
8768 10956 10960 28
8769 10961 10962 28
8770 10961 10963 28
8771 10961 10964 28
8772 10961 10965 28
8773 10966 10967 28
8774 10966 10968 28
8775 10966 10969 28
8776 10966 10970 28
8777 10971 10972 28
8778 10971 10973 28
8779 10971 10974 28
8780 10971 10975 28
8781 10976 10977 28
8782 10976 10978 28
8783 10976 10979 28
8784 10976 10980 28
8785 10981 10982 28
8786 10981 10983 28
8787 10981 10984 28
8788 10981 10985 28
8789 10986 10987 28
8790 10986 10988 28
8791 10986 10989 28
8792 10986 10990 28
8793 10991 10992 28
8794 10991 10993 28
8795 10991 10994 28
8796 10991 10995 28
8797 10996 10997 28
8798 10996 10998 28
8799 10996 10999 28
8800 10996 11000 28
8801 11001 11002 28
8802 11001 11003 28
8803 11001 11004 28
8804 11001 11005 28
8805 11006 11007 28
8806 11006 11008 28
8807 11006 11009 28
8808 11006 11010 28
8809 11011 11012 28
8810 11011 11013 28
8811 11011 11014 28
8812 11011 11015 28
8813 11016 11017 28
8814 11016 11018 28
8815 11016 11019 28
8816 11016 11020 28
8817 11021 11022 28
8818 11021 11023 28
8819 11021 11024 28
8820 11021 11025 28
8821 11026 11027 28
8822 11026 11028 28
8823 11026 11029 28
8824 11026 11030 28
8825 11031 11032 28
8826 11031 11033 28
8827 11031 11034 28
8828 11031 11035 28
8829 11036 11037 28
8830 11036 11038 28
8831 11036 11039 28
8832 11036 11040 28
8833 11041 11042 28
8834 11041 11043 28
8835 11041 11044 28
8836 11041 11045 28
8837 11046 11047 28
8838 11046 11048 28
8839 11046 11049 28
8840 11046 11050 28
8841 11051 11052 28
8842 11051 11053 28
8843 11051 11054 28
8844 11051 11055 28
8845 11056 11057 28
8846 11056 11058 28
8847 11056 11059 28
8848 11056 11060 28
8849 11061 11062 28
8850 11061 11063 28
8851 11061 11064 28
8852 11061 11065 28
8853 11066 11067 28
8854 11066 11068 28
8855 11066 11069 28
8856 11066 11070 28
8857 11071 11072 28
8858 11071 11073 28
8859 11071 11074 28
8860 11071 11075 28
8861 11076 11077 28
8862 11076 11078 28
8863 11076 11079 28
8864 11076 11080 28
8865 11081 11082 28
8866 11081 11083 28
8867 11081 11084 28
8868 11081 11085 28
8869 11086 11087 28
8870 11086 11088 28
8871 11086 11089 28
8872 11086 11090 28
8873 11091 11092 28
8874 11091 11093 28
8875 11091 11094 28
8876 11091 11095 28
8877 11096 11097 28
8878 11096 11098 28
8879 11096 11099 28
8880 11096 11100 28
8881 11101 11102 28
8882 11101 11103 28
8883 11101 11104 28
8884 11101 11105 28
8885 11106 11107 28
8886 11106 11108 28
8887 11106 11109 28
8888 11106 11110 28
8889 11111 11112 28
8890 11111 11113 28
8891 11111 11114 28
8892 11111 11115 28
8893 11116 11117 28
8894 11116 11118 28
8895 11116 11119 28
8896 11116 11120 28
8897 11121 11122 28
8898 11121 11123 28
8899 11121 11124 28
8900 11121 11125 28
8901 11126 11127 28
8902 11126 11128 28
8903 11126 11129 28
8904 11126 11130 28
8905 11131 11132 28
8906 11131 11133 28
8907 11131 11134 28
8908 11131 11135 28
8909 11136 11137 28
8910 11136 11138 28
8911 11136 11139 28
8912 11136 11140 28
8913 11141 11142 28
8914 11141 11143 28
8915 11141 11144 28
8916 11141 11145 28
8917 11146 11147 28
8918 11146 11148 28
8919 11146 11149 28
8920 11146 11150 28
8921 11151 11152 28
8922 11151 11153 28
8923 11151 11154 28
8924 11151 11155 28
8925 11156 11157 28
8926 11156 11158 28
8927 11156 11159 28
8928 11156 11160 28
8929 11161 11162 28
8930 11161 11163 28
8931 11161 11164 28
8932 11161 11165 28
8933 11166 11167 28
8934 11166 11168 28
8935 11166 11169 28
8936 11166 11170 28
8937 11171 11172 28
8938 11171 11173 28
8939 11171 11174 28
8940 11171 11175 28
8941 11176 11177 28
8942 11176 11178 28
8943 11176 11179 28
8944 11176 11180 28
8945 11181 11182 28
8946 11181 11183 28
8947 11181 11184 28
8948 11181 11185 28
8949 11186 11187 28
8950 11186 11188 28
8951 11186 11189 28
8952 11186 11190 28
8953 11191 11192 28
8954 11191 11193 28
8955 11191 11194 28
8956 11191 11195 28
8957 11196 11197 28
8958 11196 11198 28
8959 11196 11199 28
8960 11196 11200 28
8961 11201 11202 28
8962 11201 11203 28
8963 11201 11204 28
8964 11201 11205 28
8965 11206 11207 28
8966 11206 11208 28
8967 11206 11209 28
8968 11206 11210 28
8969 11211 11212 28
8970 11211 11213 28
8971 11211 11214 28
8972 11211 11215 28
8973 11216 11217 28
8974 11216 11218 28
8975 11216 11219 28
8976 11216 11220 28
8977 11221 11222 28
8978 11221 11223 28
8979 11221 11224 28
8980 11221 11225 28
8981 11226 11227 28
8982 11226 11228 28
8983 11226 11229 28
8984 11226 11230 28
8985 11231 11232 28
8986 11231 11233 28
8987 11231 11234 28
8988 11231 11235 28
8989 11236 11237 28
8990 11236 11238 28
8991 11236 11239 28
8992 11236 11240 28
8993 11241 11242 28
8994 11241 11243 28
8995 11241 11244 28
8996 11241 11245 28
8997 11246 11247 28
8998 11246 11248 28
8999 11246 11249 28
9000 11246 11250 28
9001 11251 11252 28
9002 11251 11253 28
9003 11251 11254 28
9004 11251 11255 28
9005 11256 11257 28
9006 11256 11258 28
9007 11256 11259 28
9008 11256 11260 28
9009 11261 11262 28
9010 11261 11263 28
9011 11261 11264 28
9012 11261 11265 28
9013 11266 11267 28
9014 11266 11268 28
9015 11266 11269 28
9016 11266 11270 28
9017 11271 11272 28
9018 11271 11273 28
9019 11271 11274 28
9020 11271 11275 28
9021 11276 11277 28
9022 11276 11278 28
9023 11276 11279 28
9024 11276 11280 28
9025 11281 11282 28
9026 11281 11283 28
9027 11281 11284 28
9028 11281 11285 28
9029 11286 11287 28
9030 11286 11288 28
9031 11286 11289 28
9032 11286 11290 28
9033 11291 11292 28
9034 11291 11293 28
9035 11291 11294 28
9036 11291 11295 28
9037 11296 11297 28
9038 11296 11298 28
9039 11296 11299 28
9040 11296 11300 28
9041 11301 11302 28
9042 11301 11303 28
9043 11301 11304 28
9044 11301 11305 28
9045 11306 11307 28
9046 11306 11308 28
9047 11306 11309 28
9048 11306 11310 28
9049 11311 11312 28
9050 11311 11313 28
9051 11311 11314 28
9052 11311 11315 28
9053 11316 11317 28
9054 11316 11318 28
9055 11316 11319 28
9056 11316 11320 28
9057 11321 11322 28
9058 11321 11323 28
9059 11321 11324 28
9060 11321 11325 28
9061 11326 11327 28
9062 11326 11328 28
9063 11326 11329 28
9064 11326 11330 28
9065 11331 11332 28
9066 11331 11333 28
9067 11331 11334 28
9068 11331 11335 28
9069 11336 11337 28
9070 11336 11338 28
9071 11336 11339 28
9072 11336 11340 28
9073 11341 11342 28
9074 11341 11343 28
9075 11341 11344 28
9076 11341 11345 28
9077 11346 11347 28
9078 11346 11348 28
9079 11346 11349 28
9080 11346 11350 28
9081 11351 11352 28
9082 11351 11353 28
9083 11351 11354 28
9084 11351 11355 28
9085 11356 11357 28
9086 11356 11358 28
9087 11356 11359 28
9088 11356 11360 28
9089 11361 11362 28
9090 11361 11363 28
9091 11361 11364 28
9092 11361 11365 28
9093 11366 11367 28
9094 11366 11368 28
9095 11366 11369 28
9096 11366 11370 28
9097 11371 11372 28
9098 11371 11373 28
9099 11371 11374 28
9100 11371 11375 28
9101 11376 11377 28
9102 11376 11378 28
9103 11376 11379 28
9104 11376 11380 28
9105 11381 11382 28
9106 11381 11383 28
9107 11381 11384 28
9108 11381 11385 28
9109 11386 11387 28
9110 11386 11388 28
9111 11386 11389 28
9112 11386 11390 28
9113 11391 11392 28
9114 11391 11393 28
9115 11391 11394 28
9116 11391 11395 28
9117 11396 11397 28
9118 11396 11398 28
9119 11396 11399 28
9120 11396 11400 28
9121 11401 11402 28
9122 11401 11403 28
9123 11401 11404 28
9124 11401 11405 28
9125 11406 11407 28
9126 11406 11408 28
9127 11406 11409 28
9128 11406 11410 28
9129 11411 11412 28
9130 11411 11413 28
9131 11411 11414 28
9132 11411 11415 28
9133 11416 11417 28
9134 11416 11418 28
9135 11416 11419 28
9136 11416 11420 28
9137 11421 11422 28
9138 11421 11423 28
9139 11421 11424 28
9140 11421 11425 28
9141 11426 11427 28
9142 11426 11428 28
9143 11426 11429 28
9144 11426 11430 28
9145 11431 11432 28
9146 11431 11433 28
9147 11431 11434 28
9148 11431 11435 28
9149 11436 11437 28
9150 11436 11438 28
9151 11436 11439 28
9152 11436 11440 28
9153 11441 11442 28
9154 11441 11443 28
9155 11441 11444 28
9156 11441 11445 28
9157 11446 11447 28
9158 11446 11448 28
9159 11446 11449 28
9160 11446 11450 28
9161 11451 11452 28
9162 11451 11453 28
9163 11451 11454 28
9164 11451 11455 28
9165 11456 11457 28
9166 11456 11458 28
9167 11456 11459 28
9168 11456 11460 28
9169 11461 11462 28
9170 11461 11463 28
9171 11461 11464 28
9172 11461 11465 28
9173 11466 11467 28
9174 11466 11468 28
9175 11466 11469 28
9176 11466 11470 28
9177 11471 11472 28
9178 11471 11473 28
9179 11471 11474 28
9180 11471 11475 28
9181 11476 11477 28
9182 11476 11478 28
9183 11476 11479 28
9184 11476 11480 28
9185 11481 11482 28
9186 11481 11483 28
9187 11481 11484 28
9188 11481 11485 28
9189 11486 11487 28
9190 11486 11488 28
9191 11486 11489 28
9192 11486 11490 28
9193 11491 11492 28
9194 11491 11493 28
9195 11491 11494 28
9196 11491 11495 28
9197 11496 11497 28
9198 11496 11498 28
9199 11496 11499 28
9200 11496 11500 28
9201 11501 11502 28
9202 11501 11503 28
9203 11501 11504 28
9204 11501 11505 28
9205 11506 11507 28
9206 11506 11508 28
9207 11506 11509 28
9208 11506 11510 28
9209 11511 11512 28
9210 11511 11513 28
9211 11511 11514 28
9212 11511 11515 28
9213 11516 11517 28
9214 11516 11518 28
9215 11516 11519 28
9216 11516 11520 28
9217 11521 11522 28
9218 11521 11523 28
9219 11521 11524 28
9220 11521 11525 28
9221 11526 11527 28
9222 11526 11528 28
9223 11526 11529 28
9224 11526 11530 28
9225 11531 11532 28
9226 11531 11533 28
9227 11531 11534 28
9228 11531 11535 28
9229 11536 11537 28
9230 11536 11538 28
9231 11536 11539 28
9232 11536 11540 28
9233 11541 11542 28
9234 11541 11543 28
9235 11541 11544 28
9236 11541 11545 28
9237 11546 11547 28
9238 11546 11548 28
9239 11546 11549 28
9240 11546 11550 28
9241 11551 11552 28
9242 11551 11553 28
9243 11551 11554 28
9244 11551 11555 28
9245 11556 11557 28
9246 11556 11558 28
9247 11556 11559 28
9248 11556 11560 28
9249 11561 11562 28
9250 11561 11563 28
9251 11561 11564 28
9252 11561 11565 28
9253 11566 11567 28
9254 11566 11568 28
9255 11566 11569 28
9256 11566 11570 28
9257 11571 11572 28
9258 11571 11573 28
9259 11571 11574 28
9260 11571 11575 28
9261 11576 11577 28
9262 11576 11578 28
9263 11576 11579 28
9264 11576 11580 28
9265 11581 11582 28
9266 11581 11583 28
9267 11581 11584 28
9268 11581 11585 28
9269 11586 11587 28
9270 11586 11588 28
9271 11586 11589 28
9272 11586 11590 28
9273 11591 11592 28
9274 11591 11593 28
9275 11591 11594 28
9276 11591 11595 28
9277 11596 11597 28
9278 11596 11598 28
9279 11596 11599 28
9280 11596 11600 28
9281 11601 11602 28
9282 11601 11603 28
9283 11601 11604 28
9284 11601 11605 28
9285 11606 11607 28
9286 11606 11608 28
9287 11606 11609 28
9288 11606 11610 28
9289 11611 11612 28
9290 11611 11613 28
9291 11611 11614 28
9292 11611 11615 28
9293 11616 11617 28
9294 11616 11618 28
9295 11616 11619 28
9296 11616 11620 28
9297 11621 11622 28
9298 11621 11623 28
9299 11621 11624 28
9300 11621 11625 28
9301 11626 11627 28
9302 11626 11628 28
9303 11626 11629 28
9304 11626 11630 28
9305 11631 11632 28
9306 11631 11633 28
9307 11631 11634 28
9308 11631 11635 28
9309 11636 11637 28
9310 11636 11638 28
9311 11636 11639 28
9312 11636 11640 28
9313 11641 11642 28
9314 11641 11643 28
9315 11641 11644 28
9316 11641 11645 28
9317 11646 11647 28
9318 11646 11648 28
9319 11646 11649 28
9320 11646 11650 28
9321 11651 11652 28
9322 11651 11653 28
9323 11651 11654 28
9324 11651 11655 28
9325 11656 11657 28
9326 11656 11658 28
9327 11656 11659 28
9328 11656 11660 28
9329 11661 11662 28
9330 11661 11663 28
9331 11661 11664 28
9332 11661 11665 28
9333 11666 11667 28
9334 11666 11668 28
9335 11666 11669 28
9336 11666 11670 28
9337 11671 11672 28
9338 11671 11673 28
9339 11671 11674 28
9340 11671 11675 28
9341 11676 11677 28
9342 11676 11678 28
9343 11676 11679 28
9344 11676 11680 28
9345 11681 11682 28
9346 11681 11683 28
9347 11681 11684 28
9348 11681 11685 28
9349 11686 11687 28
9350 11686 11688 28
9351 11686 11689 28
9352 11686 11690 28
9353 11691 11692 28
9354 11691 11693 28
9355 11691 11694 28
9356 11691 11695 28
9357 11696 11697 28
9358 11696 11698 28
9359 11696 11699 28
9360 11696 11700 28
9361 11701 11702 28
9362 11701 11703 28
9363 11701 11704 28
9364 11701 11705 28
9365 11706 11707 28
9366 11706 11708 28
9367 11706 11709 28
9368 11706 11710 28
9369 11711 11712 28
9370 11711 11713 28
9371 11711 11714 28
9372 11711 11715 28
9373 11716 11717 28
9374 11716 11718 28
9375 11716 11719 28
9376 11716 11720 28
9377 11721 11722 28
9378 11721 11723 28
9379 11721 11724 28
9380 11721 11725 28
9381 11726 11727 28
9382 11726 11728 28
9383 11726 11729 28
9384 11726 11730 28
9385 11731 11732 28
9386 11731 11733 28
9387 11731 11734 28
9388 11731 11735 28
9389 11736 11737 28
9390 11736 11738 28
9391 11736 11739 28
9392 11736 11740 28
9393 11741 11742 28
9394 11741 11743 28
9395 11741 11744 28
9396 11741 11745 28
9397 11746 11747 28
9398 11746 11748 28
9399 11746 11749 28
9400 11746 11750 28
9401 11751 11752 28
9402 11751 11753 28
9403 11751 11754 28
9404 11751 11755 28
9405 11756 11757 28
9406 11756 11758 28
9407 11756 11759 28
9408 11756 11760 28
9409 11761 11762 28
9410 11761 11763 28
9411 11761 11764 28
9412 11761 11765 28
9413 11766 11767 28
9414 11766 11768 28
9415 11766 11769 28
9416 11766 11770 28
9417 11771 11772 28
9418 11771 11773 28
9419 11771 11774 28
9420 11771 11775 28
9421 11776 11777 28
9422 11776 11778 28
9423 11776 11779 28
9424 11776 11780 28
9425 11781 11782 28
9426 11781 11783 28
9427 11781 11784 28
9428 11781 11785 28
9429 11786 11787 28
9430 11786 11788 28
9431 11786 11789 28
9432 11786 11790 28
9433 11791 11792 28
9434 11791 11793 28
9435 11791 11794 28
9436 11791 11795 28
9437 11796 11797 28
9438 11796 11798 28
9439 11796 11799 28
9440 11796 11800 28
9441 11801 11802 28
9442 11801 11803 28
9443 11801 11804 28
9444 11801 11805 28
9445 11806 11807 28
9446 11806 11808 28
9447 11806 11809 28
9448 11806 11810 28
9449 11811 11812 28
9450 11811 11813 28
9451 11811 11814 28
9452 11811 11815 28
9453 11816 11817 28
9454 11816 11818 28
9455 11816 11819 28
9456 11816 11820 28
9457 11821 11822 28
9458 11821 11823 28
9459 11821 11824 28
9460 11821 11825 28
9461 11826 11827 28
9462 11826 11828 28
9463 11826 11829 28
9464 11826 11830 28
9465 11831 11832 28
9466 11831 11833 28
9467 11831 11834 28
9468 11831 11835 28
9469 11836 11837 28
9470 11836 11838 28
9471 11836 11839 28
9472 11836 11840 28
9473 11841 11842 28
9474 11841 11843 28
9475 11841 11844 28
9476 11841 11845 28
9477 11846 11847 28
9478 11846 11848 28
9479 11846 11849 28
9480 11846 11850 28
9481 11851 11852 28
9482 11851 11853 28
9483 11851 11854 28
9484 11851 11855 28
9485 11856 11857 28
9486 11856 11858 28
9487 11856 11859 28
9488 11856 11860 28
9489 11861 11862 28
9490 11861 11863 28
9491 11861 11864 28
9492 11861 11865 28
9493 11866 11867 28
9494 11866 11868 28
9495 11866 11869 28
9496 11866 11870 28
9497 11871 11872 28
9498 11871 11873 28
9499 11871 11874 28
9500 11871 11875 28
9501 11876 11877 28
9502 11876 11878 28
9503 11876 11879 28
9504 11876 11880 28
9505 11881 11882 28
9506 11881 11883 28
9507 11881 11884 28
9508 11881 11885 28
9509 11886 11887 28
9510 11886 11888 28
9511 11886 11889 28
9512 11886 11890 28
9513 11891 11892 28
9514 11891 11893 28
9515 11891 11894 28
9516 11891 11895 28
9517 11896 11897 28
9518 11896 11898 28
9519 11896 11899 28
9520 11896 11900 28
9521 11901 11902 28
9522 11901 11903 28
9523 11901 11904 28
9524 11901 11905 28
9525 11906 11907 28
9526 11906 11908 28
9527 11906 11909 28
9528 11906 11910 28
9529 11911 11912 28
9530 11911 11913 28
9531 11911 11914 28
9532 11911 11915 28
9533 11916 11917 28
9534 11916 11918 28
9535 11916 11919 28
9536 11916 11920 28
9537 11921 11922 28
9538 11921 11923 28
9539 11921 11924 28
9540 11921 11925 28
9541 11926 11927 28
9542 11926 11928 28
9543 11926 11929 28
9544 11926 11930 28
9545 11931 11932 28
9546 11931 11933 28
9547 11931 11934 28
9548 11931 11935 28
9549 11936 11937 28
9550 11936 11938 28
9551 11936 11939 28
9552 11936 11940 28
9553 11941 11942 28
9554 11941 11943 28
9555 11941 11944 28
9556 11941 11945 28
9557 11946 11947 28
9558 11946 11948 28
9559 11946 11949 28
9560 11946 11950 28
9561 11951 11952 28
9562 11951 11953 28
9563 11951 11954 28
9564 11951 11955 28
9565 11956 11957 28
9566 11956 11958 28
9567 11956 11959 28
9568 11956 11960 28
9569 11961 11962 28
9570 11961 11963 28
9571 11961 11964 28
9572 11961 11965 28
9573 11966 11967 28
9574 11966 11968 28
9575 11966 11969 28
9576 11966 11970 28
9577 11971 11972 28
9578 11971 11973 28
9579 11971 11974 28
9580 11971 11975 28
9581 11976 11977 28
9582 11976 11978 28
9583 11976 11979 28
9584 11976 11980 28
9585 11981 11982 28
9586 11981 11983 28
9587 11981 11984 28
9588 11981 11985 28
9589 11986 11987 28
9590 11986 11988 28
9591 11986 11989 28
9592 11986 11990 28
9593 11991 11992 28
9594 11991 11993 28
9595 11991 11994 28
9596 11991 11995 28
9597 11996 11997 28
9598 11996 11998 28
9599 11996 11999 28
9600 11996 12000 28
9601 12001 12002 28
9602 12001 12003 28
9603 12001 12004 28
9604 12001 12005 28
9605 12006 12007 28
9606 12006 12008 28
9607 12006 12009 28
9608 12006 12010 28
9609 12011 12012 28
9610 12011 12013 28
9611 12011 12014 28
9612 12011 12015 28
9613 12016 12017 28
9614 12016 12018 28
9615 12016 12019 28
9616 12016 12020 28
9617 12021 12022 28
9618 12021 12023 28
9619 12021 12024 28
9620 12021 12025 28
9621 12026 12027 28
9622 12026 12028 28
9623 12026 12029 28
9624 12026 12030 28
9625 12031 12032 28
9626 12031 12033 28
9627 12031 12034 28
9628 12031 12035 28
9629 12036 12037 28
9630 12036 12038 28
9631 12036 12039 28
9632 12036 12040 28
9633 12041 12042 28
9634 12041 12043 28
9635 12041 12044 28
9636 12041 12045 28
9637 12046 12047 28
9638 12046 12048 28
9639 12046 12049 28
9640 12046 12050 28
9641 12051 12052 28
9642 12051 12053 28
9643 12051 12054 28
9644 12051 12055 28
9645 12056 12057 28
9646 12056 12058 28
9647 12056 12059 28
9648 12056 12060 28
9649 12061 12062 28
9650 12061 12063 28
9651 12061 12064 28
9652 12061 12065 28
9653 12066 12067 28
9654 12066 12068 28
9655 12066 12069 28
9656 12066 12070 28
9657 12071 12072 28
9658 12071 12073 28
9659 12071 12074 28
9660 12071 12075 28
9661 12076 12077 28
9662 12076 12078 28
9663 12076 12079 28
9664 12076 12080 28
9665 12081 12082 28
9666 12081 12083 28
9667 12081 12084 28
9668 12081 12085 28
9669 12086 12087 28
9670 12086 12088 28
9671 12086 12089 28
9672 12086 12090 28
9673 12091 12092 28
9674 12091 12093 28
9675 12091 12094 28
9676 12091 12095 28
9677 12096 12097 28
9678 12096 12098 28
9679 12096 12099 28
9680 12096 12100 28
9681 12101 12102 28
9682 12101 12103 28
9683 12101 12104 28
9684 12101 12105 28
9685 12106 12107 28
9686 12106 12108 28
9687 12106 12109 28
9688 12106 12110 28
9689 12111 12112 28
9690 12111 12113 28
9691 12111 12114 28
9692 12111 12115 28
9693 12116 12117 28
9694 12116 12118 28
9695 12116 12119 28
9696 12116 12120 28
9697 12121 12122 28
9698 12121 12123 28
9699 12121 12124 28
9700 12121 12125 28
9701 12126 12127 28
9702 12126 12128 28
9703 12126 12129 28
9704 12126 12130 28
9705 12131 12132 28
9706 12131 12133 28
9707 12131 12134 28
9708 12131 12135 28
9709 12136 12137 28
9710 12136 12138 28
9711 12136 12139 28
9712 12136 12140 28
9713 12141 12142 28
9714 12141 12143 28
9715 12141 12144 28
9716 12141 12145 28
9717 12146 12147 28
9718 12146 12148 28
9719 12146 12149 28
9720 12146 12150 28
9721 12151 12152 28
9722 12151 12153 28
9723 12151 12154 28
9724 12151 12155 28
9725 12156 12157 28
9726 12156 12158 28
9727 12156 12159 28
9728 12156 12160 28
9729 12161 12162 28
9730 12161 12163 28
9731 12161 12164 28
9732 12161 12165 28
9733 12166 12167 28
9734 12166 12168 28
9735 12166 12169 28
9736 12166 12170 28
9737 12171 12172 28
9738 12171 12173 28
9739 12171 12174 28
9740 12171 12175 28
9741 12176 12177 28
9742 12176 12178 28
9743 12176 12179 28
9744 12176 12180 28
9745 12181 12182 28
9746 12181 12183 28
9747 12181 12184 28
9748 12181 12185 28
9749 12186 12187 28
9750 12186 12188 28
9751 12186 12189 28
9752 12186 12190 28
9753 12191 12192 28
9754 12191 12193 28
9755 12191 12194 28
9756 12191 12195 28
9757 12196 12197 28
9758 12196 12198 28
9759 12196 12199 28
9760 12196 12200 28
9761 12201 12202 28
9762 12201 12203 28
9763 12201 12204 28
9764 12201 12205 28
9765 12206 12207 28
9766 12206 12208 28
9767 12206 12209 28
9768 12206 12210 28
9769 12211 12212 28
9770 12211 12213 28
9771 12211 12214 28
9772 12211 12215 28
9773 12216 12217 28
9774 12216 12218 28
9775 12216 12219 28
9776 12216 12220 28
9777 12221 12222 28
9778 12221 12223 28
9779 12221 12224 28
9780 12221 12225 28
9781 12226 12227 28
9782 12226 12228 28
9783 12226 12229 28
9784 12226 12230 28
9785 12231 12232 28
9786 12231 12233 28
9787 12231 12234 28
9788 12231 12235 28
9789 12236 12237 28
9790 12236 12238 28
9791 12236 12239 28
9792 12236 12240 28
9793 12241 12242 28
9794 12241 12243 28
9795 12241 12244 28
9796 12241 12245 28
9797 12246 12247 28
9798 12246 12248 28
9799 12246 12249 28
9800 12246 12250 28
9801 12251 12252 28
9802 12251 12253 28
9803 12251 12254 28
9804 12251 12255 28
9805 12256 12257 28
9806 12256 12258 28
9807 12256 12259 28
9808 12256 12260 28
9809 12261 12262 28
9810 12261 12263 28
9811 12261 12264 28
9812 12261 12265 28
9813 12266 12267 28
9814 12266 12268 28
9815 12266 12269 28
9816 12266 12270 28
9817 12271 12272 28
9818 12271 12273 28
9819 12271 12274 28
9820 12271 12275 28
9821 12276 12277 28
9822 12276 12278 28
9823 12276 12279 28
9824 12276 12280 28
9825 12281 12282 28
9826 12281 12283 28
9827 12281 12284 28
9828 12281 12285 28
9829 12286 12287 28
9830 12286 12288 28
9831 12286 12289 28
9832 12286 12290 28
9833 12291 12292 28
9834 12291 12293 28
9835 12291 12294 28
9836 12291 12295 28
9837 12296 12297 28
9838 12296 12298 28
9839 12296 12299 28
9840 12296 12300 28
9841 12301 12302 28
9842 12301 12303 28
9843 12301 12304 28
9844 12301 12305 28
9845 12306 12307 28
9846 12306 12308 28
9847 12306 12309 28
9848 12306 12310 28
9849 12311 12312 28
9850 12311 12313 28
9851 12311 12314 28
9852 12311 12315 28
9853 12316 12317 28
9854 12316 12318 28
9855 12316 12319 28
9856 12316 12320 28
9857 12321 12322 28
9858 12321 12323 28
9859 12321 12324 28
9860 12321 12325 28
9861 12326 12327 28
9862 12326 12328 28
9863 12326 12329 28
9864 12326 12330 28
9865 12331 12332 28
9866 12331 12333 28
9867 12331 12334 28
9868 12331 12335 28
9869 12336 12337 28
9870 12336 12338 28
9871 12336 12339 28
9872 12336 12340 28
9873 12341 12342 28
9874 12341 12343 28
9875 12341 12344 28
9876 12341 12345 28
9877 12346 12347 28
9878 12346 12348 28
9879 12346 12349 28
9880 12346 12350 28
9881 12351 12352 28
9882 12351 12353 28
9883 12351 12354 28
9884 12351 12355 28
9885 12356 12357 28
9886 12356 12358 28
9887 12356 12359 28
9888 12356 12360 28
9889 12361 12362 28
9890 12361 12363 28
9891 12361 12364 28
9892 12361 12365 28
9893 12366 12367 28
9894 12366 12368 28
9895 12366 12369 28
9896 12366 12370 28
9897 12371 12372 28
9898 12371 12373 28
9899 12371 12374 28
9900 12371 12375 28
9901 12376 12377 28
9902 12376 12378 28
9903 12376 12379 28
9904 12376 12380 28
9905 12381 12382 28
9906 12381 12383 28
9907 12381 12384 28
9908 12381 12385 28
9909 12386 12387 28
9910 12386 12388 28
9911 12386 12389 28
9912 12386 12390 28
9913 12391 12392 28
9914 12391 12393 28
9915 12391 12394 28
9916 12391 12395 28
9917 12396 12397 28
9918 12396 12398 28
9919 12396 12399 28
9920 12396 12400 28
9921 12401 12402 28
9922 12401 12403 28
9923 12401 12404 28
9924 12401 12405 28
9925 12406 12407 28
9926 12406 12408 28
9927 12406 12409 28
9928 12406 12410 28
9929 12411 12412 28
9930 12411 12413 28
9931 12411 12414 28
9932 12411 12415 28
9933 12416 12417 28
9934 12416 12418 28
9935 12416 12419 28
9936 12416 12420 28
9937 12421 12422 28
9938 12421 12423 28
9939 12421 12424 28
9940 12421 12425 28
9941 12426 12427 28
9942 12426 12428 28
9943 12426 12429 28
9944 12426 12430 28
9945 12431 12432 28
9946 12431 12433 28
9947 12431 12434 28
9948 12431 12435 28
9949 12436 12437 28
9950 12436 12438 28
9951 12436 12439 28
9952 12436 12440 28
9953 12441 12442 28
9954 12441 12443 28
9955 12441 12444 28
9956 12441 12445 28
9957 12446 12447 28
9958 12446 12448 28
9959 12446 12449 28
9960 12446 12450 28
9961 12451 12452 28
9962 12451 12453 28
9963 12451 12454 28
9964 12451 12455 28
9965 12456 12457 28
9966 12456 12458 28
9967 12456 12459 28
9968 12456 12460 28
9969 12461 12462 28
9970 12461 12463 28
9971 12461 12464 28
9972 12461 12465 28
9973 12466 12467 28
9974 12466 12468 28
9975 12466 12469 28
9976 12466 12470 28
9977 12471 12472 28
9978 12471 12473 28
9979 12471 12474 28
9980 12471 12475 28
9981 12476 12477 28
9982 12476 12478 28
9983 12476 12479 28
9984 12476 12480 28
9985 12481 12482 28
9986 12481 12483 28
9987 12481 12484 28
9988 12481 12485 28
9989 12486 12487 28
9990 12486 12488 28
9991 12486 12489 28
9992 12486 12490 28
9993 12491 12492 28
9994 12491 12493 28
9995 12491 12494 28
9996 12491 12495 28
9997 12496 12497 28
9998 12496 12498 28
9999 12496 12499 28
10000 12496 12500 28
10001 12501 12502 28
10002 12501 12503 28
10003 12501 12504 28
10004 12501 12505 28
10005 12506 12507 28
10006 12506 12508 28
10007 12506 12509 28
10008 12506 12510 28
10009 12511 12512 28
10010 12511 12513 28
10011 12511 12514 28
10012 12511 12515 28
10013 12516 12517 28
10014 12516 12518 28
10015 12516 12519 28
10016 12516 12520 28
10017 12521 12522 28
10018 12521 12523 28
10019 12521 12524 28
10020 12521 12525 28
10021 12526 12527 28
10022 12526 12528 28
10023 12526 12529 28
10024 12526 12530 28
10025 12531 12532 28
10026 12531 12533 28
10027 12531 12534 28
10028 12531 12535 28
10029 12536 12537 28
10030 12536 12538 28
10031 12536 12539 28
10032 12536 12540 28
10033 12541 12542 28
10034 12541 12543 28
10035 12541 12544 28
10036 12541 12545 28
10037 12546 12547 28
10038 12546 12548 28
10039 12546 12549 28
10040 12546 12550 28
10041 12551 12552 28
10042 12551 12553 28
10043 12551 12554 28
10044 12551 12555 28
10045 12556 12557 28
10046 12556 12558 28
10047 12556 12559 28
10048 12556 12560 28
10049 12561 12562 28
10050 12561 12563 28
10051 12561 12564 28
10052 12561 12565 28
10053 12566 12567 28
10054 12566 12568 28
10055 12566 12569 28
10056 12566 12570 28
10057 12571 12572 28
10058 12571 12573 28
10059 12571 12574 28
10060 12571 12575 28
10061 12576 12577 28
10062 12576 12578 28
10063 12576 12579 28
10064 12576 12580 28
10065 12581 12582 28
10066 12581 12583 28
10067 12581 12584 28
10068 12581 12585 28
10069 12586 12587 28
10070 12586 12588 28
10071 12586 12589 28
10072 12586 12590 28
10073 12591 12592 28
10074 12591 12593 28
10075 12591 12594 28
10076 12591 12595 28
10077 12596 12597 28
10078 12596 12598 28
10079 12596 12599 28
10080 12596 12600 28
10081 12601 12602 28
10082 12601 12603 28
10083 12601 12604 28
10084 12601 12605 28
10085 12606 12607 28
10086 12606 12608 28
10087 12606 12609 28
10088 12606 12610 28
10089 12611 12612 28
10090 12611 12613 28
10091 12611 12614 28
10092 12611 12615 28
10093 12616 12617 28
10094 12616 12618 28
10095 12616 12619 28
10096 12616 12620 28
10097 12621 12622 28
10098 12621 12623 28
10099 12621 12624 28
10100 12621 12625 28
10101 12626 12627 28
10102 12626 12628 28
10103 12626 12629 28
10104 12626 12630 28
10105 12631 12632 28
10106 12631 12633 28
10107 12631 12634 28
10108 12631 12635 28
10109 12636 12637 28
10110 12636 12638 28
10111 12636 12639 28
10112 12636 12640 28
10113 12641 12642 28
10114 12641 12643 28
10115 12641 12644 28
10116 12641 12645 28
10117 12646 12647 28
10118 12646 12648 28
10119 12646 12649 28
10120 12646 12650 28
10121 12651 12652 28
10122 12651 12653 28
10123 12651 12654 28
10124 12651 12655 28
10125 12656 12657 28
10126 12656 12658 28
10127 12656 12659 28
10128 12656 12660 28
10129 12661 12662 28
10130 12661 12663 28
10131 12661 12664 28
10132 12661 12665 28
10133 12666 12667 28
10134 12666 12668 28
10135 12666 12669 28
10136 12666 12670 28
10137 12671 12672 28
10138 12671 12673 28
10139 12671 12674 28
10140 12671 12675 28
10141 12676 12677 28
10142 12676 12678 28
10143 12676 12679 28
10144 12676 12680 28
10145 12681 12682 28
10146 12681 12683 28
10147 12681 12684 28
10148 12681 12685 28
10149 12686 12687 28
10150 12686 12688 28
10151 12686 12689 28
10152 12686 12690 28
10153 12691 12692 28
10154 12691 12693 28
10155 12691 12694 28
10156 12691 12695 28
10157 12696 12697 28
10158 12696 12698 28
10159 12696 12699 28
10160 12696 12700 28
10161 12701 12702 28
10162 12701 12703 28
10163 12701 12704 28
10164 12701 12705 28
10165 12706 12707 28
10166 12706 12708 28
10167 12706 12709 28
10168 12706 12710 28
10169 12711 12712 28
10170 12711 12713 28
10171 12711 12714 28
10172 12711 12715 28
10173 12716 12717 28
10174 12716 12718 28
10175 12716 12719 28
10176 12716 12720 28
10177 12721 12722 28
10178 12721 12723 28
10179 12721 12724 28
10180 12721 12725 28
10181 12726 12727 28
10182 12726 12728 28
10183 12726 12729 28
10184 12726 12730 28
10185 12731 12732 28
10186 12731 12733 28
10187 12731 12734 28
10188 12731 12735 28
10189 12736 12737 28
10190 12736 12738 28
10191 12736 12739 28
10192 12736 12740 28
10193 12741 12742 28
10194 12741 12743 28
10195 12741 12744 28
10196 12741 12745 28
10197 12746 12747 28
10198 12746 12748 28
10199 12746 12749 28
10200 12746 12750 28
10201 12751 12752 28
10202 12751 12753 28
10203 12751 12754 28
10204 12751 12755 28
10205 12756 12757 28
10206 12756 12758 28
10207 12756 12759 28
10208 12756 12760 28
10209 12761 12762 28
10210 12761 12763 28
10211 12761 12764 28
10212 12761 12765 28
10213 12766 12767 28
10214 12766 12768 28
10215 12766 12769 28
10216 12766 12770 28
10217 12771 12772 28
10218 12771 12773 28
10219 12771 12774 28
10220 12771 12775 28
10221 12776 12777 28
10222 12776 12778 28
10223 12776 12779 28
10224 12776 12780 28
10225 12781 12782 28
10226 12781 12783 28
10227 12781 12784 28
10228 12781 12785 28
10229 12786 12787 28
10230 12786 12788 28
10231 12786 12789 28
10232 12786 12790 28
10233 12791 12792 28
10234 12791 12793 28
10235 12791 12794 28
10236 12791 12795 28
10237 12796 12797 28
10238 12796 12798 28
10239 12796 12799 28
10240 12796 12800 28
10241 12801 12802 28
10242 12801 12803 28
10243 12801 12804 28
10244 12801 12805 28
10245 12806 12807 28
10246 12806 12808 28
10247 12806 12809 28
10248 12806 12810 28
10249 12811 12812 28
10250 12811 12813 28
10251 12811 12814 28
10252 12811 12815 28
10253 12816 12817 28
10254 12816 12818 28
10255 12816 12819 28
10256 12816 12820 28
10257 12821 12822 28
10258 12821 12823 28
10259 12821 12824 28
10260 12821 12825 28
10261 12826 12827 28
10262 12826 12828 28
10263 12826 12829 28
10264 12826 12830 28
10265 12831 12832 28
10266 12831 12833 28
10267 12831 12834 28
10268 12831 12835 28
10269 12836 12837 28
10270 12836 12838 28
10271 12836 12839 28
10272 12836 12840 28
10273 12841 12842 28
10274 12841 12843 28
10275 12841 12844 28
10276 12841 12845 28
10277 12846 12847 28
10278 12846 12848 28
10279 12846 12849 28
10280 12846 12850 28
10281 12851 12852 28
10282 12851 12853 28
10283 12851 12854 28
10284 12851 12855 28
10285 12856 12857 28
10286 12856 12858 28
10287 12856 12859 28
10288 12856 12860 28
10289 12861 12862 28
10290 12861 12863 28
10291 12861 12864 28
10292 12861 12865 28
10293 12866 12867 28
10294 12866 12868 28
10295 12866 12869 28
10296 12866 12870 28
10297 12871 12872 28
10298 12871 12873 28
10299 12871 12874 28
10300 12871 12875 28
10301 12876 12877 28
10302 12876 12878 28
10303 12876 12879 28
10304 12876 12880 28
10305 12881 12882 28
10306 12881 12883 28
10307 12881 12884 28
10308 12881 12885 28
10309 12886 12887 28
10310 12886 12888 28
10311 12886 12889 28
10312 12886 12890 28
10313 12891 12892 28
10314 12891 12893 28
10315 12891 12894 28
10316 12891 12895 28
10317 12896 12897 28
10318 12896 12898 28
10319 12896 12899 28
10320 12896 12900 28
10321 12901 12902 28
10322 12901 12903 28
10323 12901 12904 28
10324 12901 12905 28
10325 12906 12907 28
10326 12906 12908 28
10327 12906 12909 28
10328 12906 12910 28
10329 12911 12912 28
10330 12911 12913 28
10331 12911 12914 28
10332 12911 12915 28
10333 12916 12917 28
10334 12916 12918 28
10335 12916 12919 28
10336 12916 12920 28
10337 12921 12922 28
10338 12921 12923 28
10339 12921 12924 28
10340 12921 12925 28
10341 12926 12927 28
10342 12926 12928 28
10343 12926 12929 28
10344 12926 12930 28
10345 12931 12932 28
10346 12931 12933 28
10347 12931 12934 28
10348 12931 12935 28
10349 12936 12937 28
10350 12936 12938 28
10351 12936 12939 28
10352 12936 12940 28
10353 12941 12942 28
10354 12941 12943 28
10355 12941 12944 28
10356 12941 12945 28
10357 12946 12947 28
10358 12946 12948 28
10359 12946 12949 28
10360 12946 12950 28
10361 12951 12952 28
10362 12951 12953 28
10363 12951 12954 28
10364 12951 12955 28
10365 12956 12957 28
10366 12956 12958 28
10367 12956 12959 28
10368 12956 12960 28
10369 12961 12962 28
10370 12961 12963 28
10371 12961 12964 28
10372 12961 12965 28
10373 12966 12967 28
10374 12966 12968 28
10375 12966 12969 28
10376 12966 12970 28
10377 12971 12972 28
10378 12971 12973 28
10379 12971 12974 28
10380 12971 12975 28
10381 12976 12977 28
10382 12976 12978 28
10383 12976 12979 28
10384 12976 12980 28
10385 12981 12982 28
10386 12981 12983 28
10387 12981 12984 28
10388 12981 12985 28
10389 12986 12987 28
10390 12986 12988 28
10391 12986 12989 28
10392 12986 12990 28
10393 12991 12992 28
10394 12991 12993 28
10395 12991 12994 28
10396 12991 12995 28
10397 12996 12997 28
10398 12996 12998 28
10399 12996 12999 28
10400 12996 13000 28
10401 13001 13002 28
10402 13001 13003 28
10403 13001 13004 28
10404 13001 13005 28
10405 13006 13007 28
10406 13006 13008 28
10407 13006 13009 28
10408 13006 13010 28
10409 13011 13012 28
10410 13011 13013 28
10411 13011 13014 28
10412 13011 13015 28
10413 13016 13017 28
10414 13016 13018 28
10415 13016 13019 28
10416 13016 13020 28
10417 13021 13022 28
10418 13021 13023 28
10419 13021 13024 28
10420 13021 13025 28
10421 13026 13027 28
10422 13026 13028 28
10423 13026 13029 28
10424 13026 13030 28
10425 13031 13032 28
10426 13031 13033 28
10427 13031 13034 28
10428 13031 13035 28
10429 13036 13037 28
10430 13036 13038 28
10431 13036 13039 28
10432 13036 13040 28
10433 13041 13042 28
10434 13041 13043 28
10435 13041 13044 28
10436 13041 13045 28
10437 13046 13047 28
10438 13046 13048 28
10439 13046 13049 28
10440 13046 13050 28
10441 13051 13052 28
10442 13051 13053 28
10443 13051 13054 28
10444 13051 13055 28
10445 13056 13057 28
10446 13056 13058 28
10447 13056 13059 28
10448 13056 13060 28
10449 13061 13062 28
10450 13061 13063 28
10451 13061 13064 28
10452 13061 13065 28
10453 13066 13067 28
10454 13066 13068 28
10455 13066 13069 28
10456 13066 13070 28
10457 13071 13072 28
10458 13071 13073 28
10459 13071 13074 28
10460 13071 13075 28
10461 13076 13077 28
10462 13076 13078 28
10463 13076 13079 28
10464 13076 13080 28
10465 13081 13082 28
10466 13081 13083 28
10467 13081 13084 28
10468 13081 13085 28
10469 13086 13087 28
10470 13086 13088 28
10471 13086 13089 28
10472 13086 13090 28
10473 13091 13092 28
10474 13091 13093 28
10475 13091 13094 28
10476 13091 13095 28
10477 13096 13097 28
10478 13096 13098 28
10479 13096 13099 28
10480 13096 13100 28
10481 13101 13102 28
10482 13101 13103 28
10483 13101 13104 28
10484 13101 13105 28
10485 13106 13107 28
10486 13106 13108 28
10487 13106 13109 28
10488 13106 13110 28
10489 13111 13112 28
10490 13111 13113 28
10491 13111 13114 28
10492 13111 13115 28
10493 13116 13117 28
10494 13116 13118 28
10495 13116 13119 28
10496 13116 13120 28
10497 13121 13122 28
10498 13121 13123 28
10499 13121 13124 28
10500 13121 13125 28
10501 13126 13127 28
10502 13126 13128 28
10503 13126 13129 28
10504 13126 13130 28
10505 13131 13132 28
10506 13131 13133 28
10507 13131 13134 28
10508 13131 13135 28
10509 13136 13137 28
10510 13136 13138 28
10511 13136 13139 28
10512 13136 13140 28
10513 13141 13142 28
10514 13141 13143 28
10515 13141 13144 28
10516 13141 13145 28
10517 13146 13147 28
10518 13146 13148 28
10519 13146 13149 28
10520 13146 13150 28
10521 13151 13152 28
10522 13151 13153 28
10523 13151 13154 28
10524 13151 13155 28
10525 13156 13157 28
10526 13156 13158 28
10527 13156 13159 28
10528 13156 13160 28
10529 13161 13162 28
10530 13161 13163 28
10531 13161 13164 28
10532 13161 13165 28
10533 13166 13167 28
10534 13166 13168 28
10535 13166 13169 28
10536 13166 13170 28
10537 13171 13172 28
10538 13171 13173 28
10539 13171 13174 28
10540 13171 13175 28
10541 13176 13177 28
10542 13176 13178 28
10543 13176 13179 28
10544 13176 13180 28
10545 13181 13182 28
10546 13181 13183 28
10547 13181 13184 28
10548 13181 13185 28
10549 13186 13187 28
10550 13186 13188 28
10551 13186 13189 28
10552 13186 13190 28
10553 13191 13192 28
10554 13191 13193 28
10555 13191 13194 28
10556 13191 13195 28
10557 13196 13197 28
10558 13196 13198 28
10559 13196 13199 28
10560 13196 13200 28
10561 13201 13202 28
10562 13201 13203 28
10563 13201 13204 28
10564 13201 13205 28
10565 13206 13207 28
10566 13206 13208 28
10567 13206 13209 28
10568 13206 13210 28
10569 13211 13212 28
10570 13211 13213 28
10571 13211 13214 28
10572 13211 13215 28
10573 13216 13217 28
10574 13216 13218 28
10575 13216 13219 28
10576 13216 13220 28
10577 13221 13222 28
10578 13221 13223 28
10579 13221 13224 28
10580 13221 13225 28
10581 13226 13227 28
10582 13226 13228 28
10583 13226 13229 28
10584 13226 13230 28
10585 13231 13232 28
10586 13231 13233 28
10587 13231 13234 28
10588 13231 13235 28
10589 13236 13237 28
10590 13236 13238 28
10591 13236 13239 28
10592 13236 13240 28
10593 13241 13242 28
10594 13241 13243 28
10595 13241 13244 28
10596 13241 13245 28
10597 13246 13247 28
10598 13246 13248 28
10599 13246 13249 28
10600 13246 13250 28
10601 13251 13252 28
10602 13251 13253 28
10603 13251 13254 28
10604 13251 13255 28
10605 13256 13257 28
10606 13256 13258 28
10607 13256 13259 28
10608 13256 13260 28
10609 13261 13262 28
10610 13261 13263 28
10611 13261 13264 28
10612 13261 13265 28
10613 13266 13267 28
10614 13266 13268 28
10615 13266 13269 28
10616 13266 13270 28
10617 13271 13272 28
10618 13271 13273 28
10619 13271 13274 28
10620 13271 13275 28
10621 13276 13277 28
10622 13276 13278 28
10623 13276 13279 28
10624 13276 13280 28
10625 13281 13282 28
10626 13281 13283 28
10627 13281 13284 28
10628 13281 13285 28
10629 13286 13287 28
10630 13286 13288 28
10631 13286 13289 28
10632 13286 13290 28
10633 13291 13292 28
10634 13291 13293 28
10635 13291 13294 28
10636 13291 13295 28
10637 13296 13297 28
10638 13296 13298 28
10639 13296 13299 28
10640 13296 13300 28
10641 13301 13302 28
10642 13301 13303 28
10643 13301 13304 28
10644 13301 13305 28
10645 13306 13307 28
10646 13306 13308 28
10647 13306 13309 28
10648 13306 13310 28
10649 13311 13312 28
10650 13311 13313 28
10651 13311 13314 28
10652 13311 13315 28
10653 13316 13317 28
10654 13316 13318 28
10655 13316 13319 28
10656 13316 13320 28
10657 13321 13322 28
10658 13321 13323 28
10659 13321 13324 28
10660 13321 13325 28
10661 13326 13327 28
10662 13326 13328 28
10663 13326 13329 28
10664 13326 13330 28
10665 13331 13332 28
10666 13331 13333 28
10667 13331 13334 28
10668 13331 13335 28
10669 13336 13337 28
10670 13336 13338 28
10671 13336 13339 28
10672 13336 13340 28
10673 13341 13342 28
10674 13341 13343 28
10675 13341 13344 28
10676 13341 13345 28
10677 13346 13347 28
10678 13346 13348 28
10679 13346 13349 28
10680 13346 13350 28
10681 13351 13352 28
10682 13351 13353 28
10683 13351 13354 28
10684 13351 13355 28
10685 13356 13357 28
10686 13356 13358 28
10687 13356 13359 28
10688 13356 13360 28
10689 13361 13362 28
10690 13361 13363 28
10691 13361 13364 28
10692 13361 13365 28
10693 13366 13367 28
10694 13366 13368 28
10695 13366 13369 28
10696 13366 13370 28
10697 13371 13372 28
10698 13371 13373 28
10699 13371 13374 28
10700 13371 13375 28
10701 13376 13377 28
10702 13376 13378 28
10703 13376 13379 28
10704 13376 13380 28
10705 13381 13382 28
10706 13381 13383 28
10707 13381 13384 28
10708 13381 13385 28
10709 13386 13387 28
10710 13386 13388 28
10711 13386 13389 28
10712 13386 13390 28
10713 13391 13392 28
10714 13391 13393 28
10715 13391 13394 28
10716 13391 13395 28
10717 13396 13397 28
10718 13396 13398 28
10719 13396 13399 28
10720 13396 13400 28
10721 13401 13402 28
10722 13401 13403 28
10723 13401 13404 28
10724 13401 13405 28
10725 13406 13407 28
10726 13406 13408 28
10727 13406 13409 28
10728 13406 13410 28
10729 13411 13412 28
10730 13411 13413 28
10731 13411 13414 28
10732 13411 13415 28
10733 13416 13417 28
10734 13416 13418 28
10735 13416 13419 28
10736 13416 13420 28
10737 13421 13422 28
10738 13421 13423 28
10739 13421 13424 28
10740 13421 13425 28
10741 13426 13427 28
10742 13426 13428 28
10743 13426 13429 28
10744 13426 13430 28
10745 13431 13432 28
10746 13431 13433 28
10747 13431 13434 28
10748 13431 13435 28
10749 13436 13437 28
10750 13436 13438 28
10751 13436 13439 28
10752 13436 13440 28
10753 13441 13442 28
10754 13441 13443 28
10755 13441 13444 28
10756 13441 13445 28
10757 13446 13447 28
10758 13446 13448 28
10759 13446 13449 28
10760 13446 13450 28
10761 13451 13452 28
10762 13451 13453 28
10763 13451 13454 28
10764 13451 13455 28
10765 13456 13457 28
10766 13456 13458 28
10767 13456 13459 28
10768 13456 13460 28
10769 13461 13462 28
10770 13461 13463 28
10771 13461 13464 28
10772 13461 13465 28
10773 13466 13467 28
10774 13466 13468 28
10775 13466 13469 28
10776 13466 13470 28
10777 13471 13472 28
10778 13471 13473 28
10779 13471 13474 28
10780 13471 13475 28
10781 13476 13477 28
10782 13476 13478 28
10783 13476 13479 28
10784 13476 13480 28
10785 13481 13482 28
10786 13481 13483 28
10787 13481 13484 28
10788 13481 13485 28
10789 13486 13487 28
10790 13486 13488 28
10791 13486 13489 28
10792 13486 13490 28
10793 13491 13492 28
10794 13491 13493 28
10795 13491 13494 28
10796 13491 13495 28
10797 13496 13497 28
10798 13496 13498 28
10799 13496 13499 28
10800 13496 13500 28
10801 13501 13502 28
10802 13501 13503 28
10803 13501 13504 28
10804 13501 13505 28
10805 13506 13507 28
10806 13506 13508 28
10807 13506 13509 28
10808 13506 13510 28
10809 13511 13512 28
10810 13511 13513 28
10811 13511 13514 28
10812 13511 13515 28
10813 13516 13517 28
10814 13516 13518 28
10815 13516 13519 28
10816 13516 13520 28
10817 13521 13522 28
10818 13521 13523 28
10819 13521 13524 28
10820 13521 13525 28
10821 13526 13527 28
10822 13526 13528 28
10823 13526 13529 28
10824 13526 13530 28
10825 13531 13532 28
10826 13531 13533 28
10827 13531 13534 28
10828 13531 13535 28
10829 13536 13537 28
10830 13536 13538 28
10831 13536 13539 28
10832 13536 13540 28
10833 13541 13542 28
10834 13541 13543 28
10835 13541 13544 28
10836 13541 13545 28
10837 13546 13547 28
10838 13546 13548 28
10839 13546 13549 28
10840 13546 13550 28
10841 13551 13552 28
10842 13551 13553 28
10843 13551 13554 28
10844 13551 13555 28
10845 13556 13557 28
10846 13556 13558 28
10847 13556 13559 28
10848 13556 13560 28
10849 13561 13562 28
10850 13561 13563 28
10851 13561 13564 28
10852 13561 13565 28
10853 13566 13567 28
10854 13566 13568 28
10855 13566 13569 28
10856 13566 13570 28
10857 13571 13572 28
10858 13571 13573 28
10859 13571 13574 28
10860 13571 13575 28
10861 13576 13577 28
10862 13576 13578 28
10863 13576 13579 28
10864 13576 13580 28
10865 13581 13582 28
10866 13581 13583 28
10867 13581 13584 28
10868 13581 13585 28
10869 13586 13587 28
10870 13586 13588 28
10871 13586 13589 28
10872 13586 13590 28
10873 13591 13592 28
10874 13591 13593 28
10875 13591 13594 28
10876 13591 13595 28
10877 13596 13597 28
10878 13596 13598 28
10879 13596 13599 28
10880 13596 13600 28
10881 13601 13602 28
10882 13601 13603 28
10883 13601 13604 28
10884 13601 13605 28
10885 13606 13607 28
10886 13606 13608 28
10887 13606 13609 28
10888 13606 13610 28
10889 13611 13612 28
10890 13611 13613 28
10891 13611 13614 28
10892 13611 13615 28
10893 13616 13617 28
10894 13616 13618 28
10895 13616 13619 28
10896 13616 13620 28
10897 13621 13622 28
10898 13621 13623 28
10899 13621 13624 28
10900 13621 13625 28
10901 13626 13627 28
10902 13626 13628 28
10903 13626 13629 28
10904 13626 13630 28
10905 13631 13632 28
10906 13631 13633 28
10907 13631 13634 28
10908 13631 13635 28
10909 13636 13637 28
10910 13636 13638 28
10911 13636 13639 28
10912 13636 13640 28
10913 13641 13642 28
10914 13641 13643 28
10915 13641 13644 28
10916 13641 13645 28
10917 13646 13647 28
10918 13646 13648 28
10919 13646 13649 28
10920 13646 13650 28
10921 13651 13652 28
10922 13651 13653 28
10923 13651 13654 28
10924 13651 13655 28
10925 13656 13657 28
10926 13656 13658 28
10927 13656 13659 28
10928 13656 13660 28
10929 13661 13662 28
10930 13661 13663 28
10931 13661 13664 28
10932 13661 13665 28
10933 13666 13667 28
10934 13666 13668 28
10935 13666 13669 28
10936 13666 13670 28
10937 13671 13672 28
10938 13671 13673 28
10939 13671 13674 28
10940 13671 13675 28
10941 13676 13677 28
10942 13676 13678 28
10943 13676 13679 28
10944 13676 13680 28
10945 13681 13682 28
10946 13681 13683 28
10947 13681 13684 28
10948 13681 13685 28
10949 13686 13687 28
10950 13686 13688 28
10951 13686 13689 28
10952 13686 13690 28
10953 13691 13692 28
10954 13691 13693 28
10955 13691 13694 28
10956 13691 13695 28
10957 13696 13697 28
10958 13696 13698 28
10959 13696 13699 28
10960 13696 13700 28
10961 13701 13702 28
10962 13701 13703 28
10963 13701 13704 28
10964 13701 13705 28
10965 13706 13707 28
10966 13706 13708 28
10967 13706 13709 28
10968 13706 13710 28
10969 13711 13712 28
10970 13711 13713 28
10971 13711 13714 28
10972 13711 13715 28
10973 13716 13717 28
10974 13716 13718 28
10975 13716 13719 28
10976 13716 13720 28
10977 13721 13722 28
10978 13721 13723 28
10979 13721 13724 28
10980 13721 13725 28
10981 13726 13727 28
10982 13726 13728 28
10983 13726 13729 28
10984 13726 13730 28
10985 13731 13732 28
10986 13731 13733 28
10987 13731 13734 28
10988 13731 13735 28
10989 13736 13737 28
10990 13736 13738 28
10991 13736 13739 28
10992 13736 13740 28
10993 13741 13742 28
10994 13741 13743 28
10995 13741 13744 28
10996 13741 13745 28
10997 13746 13747 28
10998 13746 13748 28
10999 13746 13749 28
11000 13746 13750 28
11001 13751 13752 28
11002 13751 13753 28
11003 13751 13754 28
11004 13751 13755 28
11005 13756 13757 28
11006 13756 13758 28
11007 13756 13759 28
11008 13756 13760 28
11009 13761 13762 28
11010 13761 13763 28
11011 13761 13764 28
11012 13761 13765 28
11013 13766 13767 28
11014 13766 13768 28
11015 13766 13769 28
11016 13766 13770 28
11017 13771 13772 28
11018 13771 13773 28
11019 13771 13774 28
11020 13771 13775 28
11021 13776 13777 28
11022 13776 13778 28
11023 13776 13779 28
11024 13776 13780 28
11025 13781 13782 28
11026 13781 13783 28
11027 13781 13784 28
11028 13781 13785 28
11029 13786 13787 28
11030 13786 13788 28
11031 13786 13789 28
11032 13786 13790 28
11033 13791 13792 28
11034 13791 13793 28
11035 13791 13794 28
11036 13791 13795 28
11037 13796 13797 28
11038 13796 13798 28
11039 13796 13799 28
11040 13796 13800 28
11041 13801 13802 28
11042 13801 13803 28
11043 13801 13804 28
11044 13801 13805 28
11045 13806 13807 28
11046 13806 13808 28
11047 13806 13809 28
11048 13806 13810 28
11049 13811 13812 28
11050 13811 13813 28
11051 13811 13814 28
11052 13811 13815 28
11053 13816 13817 28
11054 13816 13818 28
11055 13816 13819 28
11056 13816 13820 28
11057 13821 13822 28
11058 13821 13823 28
11059 13821 13824 28
11060 13821 13825 28
11061 13826 13827 28
11062 13826 13828 28
11063 13826 13829 28
11064 13826 13830 28
11065 13831 13832 28
11066 13831 13833 28
11067 13831 13834 28
11068 13831 13835 28
11069 13836 13837 28
11070 13836 13838 28
11071 13836 13839 28
11072 13836 13840 28
11073 13841 13842 28
11074 13841 13843 28
11075 13841 13844 28
11076 13841 13845 28
11077 13846 13847 28
11078 13846 13848 28
11079 13846 13849 28
11080 13846 13850 28
11081 13851 13852 28
11082 13851 13853 28
11083 13851 13854 28
11084 13851 13855 28
11085 13856 13857 28
11086 13856 13858 28
11087 13856 13859 28
11088 13856 13860 28
11089 13861 13862 28
11090 13861 13863 28
11091 13861 13864 28
11092 13861 13865 28
11093 13866 13867 28
11094 13866 13868 28
11095 13866 13869 28
11096 13866 13870 28
11097 13871 13872 28
11098 13871 13873 28
11099 13871 13874 28
11100 13871 13875 28
11101 13876 13877 28
11102 13876 13878 28
11103 13876 13879 28
11104 13876 13880 28
11105 13881 13882 28
11106 13881 13883 28
11107 13881 13884 28
11108 13881 13885 28
11109 13886 13887 28
11110 13886 13888 28
11111 13886 13889 28
11112 13886 13890 28
11113 13891 13892 28
11114 13891 13893 28
11115 13891 13894 28
11116 13891 13895 28
11117 13896 13897 28
11118 13896 13898 28
11119 13896 13899 28
11120 13896 13900 28
11121 13901 13902 28
11122 13901 13903 28
11123 13901 13904 28
11124 13901 13905 28
11125 13906 13907 28
11126 13906 13908 28
11127 13906 13909 28
11128 13906 13910 28
11129 13911 13912 28
11130 13911 13913 28
11131 13911 13914 28
11132 13911 13915 28
11133 13916 13917 28
11134 13916 13918 28
11135 13916 13919 28
11136 13916 13920 28
11137 13921 13922 28
11138 13921 13923 28
11139 13921 13924 28
11140 13921 13925 28
11141 13926 13927 28
11142 13926 13928 28
11143 13926 13929 28
11144 13926 13930 28
11145 13931 13932 28
11146 13931 13933 28
11147 13931 13934 28
11148 13931 13935 28
11149 13936 13937 28
11150 13936 13938 28
11151 13936 13939 28
11152 13936 13940 28
11153 13941 13942 28
11154 13941 13943 28
11155 13941 13944 28
11156 13941 13945 28
11157 13946 13947 28
11158 13946 13948 28
11159 13946 13949 28
11160 13946 13950 28
11161 13951 13952 28
11162 13951 13953 28
11163 13951 13954 28
11164 13951 13955 28
11165 13956 13957 28
11166 13956 13958 28
11167 13956 13959 28
11168 13956 13960 28
11169 13961 13962 28
11170 13961 13963 28
11171 13961 13964 28
11172 13961 13965 28
11173 13966 13967 28
11174 13966 13968 28
11175 13966 13969 28
11176 13966 13970 28
11177 13971 13972 28
11178 13971 13973 28
11179 13971 13974 28
11180 13971 13975 28
11181 13976 13977 28
11182 13976 13978 28
11183 13976 13979 28
11184 13976 13980 28
11185 13981 13982 28
11186 13981 13983 28
11187 13981 13984 28
11188 13981 13985 28
11189 13986 13987 28
11190 13986 13988 28
11191 13986 13989 28
11192 13986 13990 28
11193 13991 13992 28
11194 13991 13993 28
11195 13991 13994 28
11196 13991 13995 28
11197 13996 13997 28
11198 13996 13998 28
11199 13996 13999 28
11200 13996 14000 28
11201 14001 14002 28
11202 14001 14003 28
11203 14001 14004 28
11204 14001 14005 28
11205 14006 14007 28
11206 14006 14008 28
11207 14006 14009 28
11208 14006 14010 28
11209 14011 14012 28
11210 14011 14013 28
11211 14011 14014 28
11212 14011 14015 28
11213 14016 14017 28
11214 14016 14018 28
11215 14016 14019 28
11216 14016 14020 28
11217 14021 14022 28
11218 14021 14023 28
11219 14021 14024 28
11220 14021 14025 28
11221 14026 14027 28
11222 14026 14028 28
11223 14026 14029 28
11224 14026 14030 28
11225 14031 14032 28
11226 14031 14033 28
11227 14031 14034 28
11228 14031 14035 28
11229 14036 14037 28
11230 14036 14038 28
11231 14036 14039 28
11232 14036 14040 28
11233 14041 14042 28
11234 14041 14043 28
11235 14041 14044 28
11236 14041 14045 28
11237 14046 14047 28
11238 14046 14048 28
11239 14046 14049 28
11240 14046 14050 28
11241 14051 14052 28
11242 14051 14053 28
11243 14051 14054 28
11244 14051 14055 28
11245 14056 14057 28
11246 14056 14058 28
11247 14056 14059 28
11248 14056 14060 28
11249 14061 14062 28
11250 14061 14063 28
11251 14061 14064 28
11252 14061 14065 28
11253 14066 14067 28
11254 14066 14068 28
11255 14066 14069 28
11256 14066 14070 28
11257 14071 14072 28
11258 14071 14073 28
11259 14071 14074 28
11260 14071 14075 28
11261 14076 14077 28
11262 14076 14078 28
11263 14076 14079 28
11264 14076 14080 28
11265 14081 14082 28
11266 14081 14083 28
11267 14081 14084 28
11268 14081 14085 28
11269 14086 14087 28
11270 14086 14088 28
11271 14086 14089 28
11272 14086 14090 28
11273 14091 14092 28
11274 14091 14093 28
11275 14091 14094 28
11276 14091 14095 28
11277 14096 14097 28
11278 14096 14098 28
11279 14096 14099 28
11280 14096 14100 28
11281 14101 14102 28
11282 14101 14103 28
11283 14101 14104 28
11284 14101 14105 28
11285 14106 14107 28
11286 14106 14108 28
11287 14106 14109 28
11288 14106 14110 28
11289 14111 14112 28
11290 14111 14113 28
11291 14111 14114 28
11292 14111 14115 28
11293 14116 14117 28
11294 14116 14118 28
11295 14116 14119 28
11296 14116 14120 28
11297 14121 14122 28
11298 14121 14123 28
11299 14121 14124 28
11300 14121 14125 28
11301 14126 14127 28
11302 14126 14128 28
11303 14126 14129 28
11304 14126 14130 28
11305 14131 14132 28
11306 14131 14133 28
11307 14131 14134 28
11308 14131 14135 28
11309 14136 14137 28
11310 14136 14138 28
11311 14136 14139 28
11312 14136 14140 28
11313 14141 14142 28
11314 14141 14143 28
11315 14141 14144 28
11316 14141 14145 28
11317 14146 14147 28
11318 14146 14148 28
11319 14146 14149 28
11320 14146 14150 28
11321 14151 14152 28
11322 14151 14153 28
11323 14151 14154 28
11324 14151 14155 28
11325 14156 14157 28
11326 14156 14158 28
11327 14156 14159 28
11328 14156 14160 28
11329 14161 14162 28
11330 14161 14163 28
11331 14161 14164 28
11332 14161 14165 28
11333 14166 14167 28
11334 14166 14168 28
11335 14166 14169 28
11336 14166 14170 28
11337 14171 14172 28
11338 14171 14173 28
11339 14171 14174 28
11340 14171 14175 28
11341 14176 14177 28
11342 14176 14178 28
11343 14176 14179 28
11344 14176 14180 28
11345 14181 14182 28
11346 14181 14183 28
11347 14181 14184 28
11348 14181 14185 28
11349 14186 14187 28
11350 14186 14188 28
11351 14186 14189 28
11352 14186 14190 28
11353 14191 14192 28
11354 14191 14193 28
11355 14191 14194 28
11356 14191 14195 28
11357 14196 14197 28
11358 14196 14198 28
11359 14196 14199 28
11360 14196 14200 28
11361 14201 14202 28
11362 14201 14203 28
11363 14201 14204 28
11364 14201 14205 28
11365 14206 14207 28
11366 14206 14208 28
11367 14206 14209 28
11368 14206 14210 28
11369 14211 14212 28
11370 14211 14213 28
11371 14211 14214 28
11372 14211 14215 28
11373 14216 14217 28
11374 14216 14218 28
11375 14216 14219 28
11376 14216 14220 28
11377 14221 14222 28
11378 14221 14223 28
11379 14221 14224 28
11380 14221 14225 28
11381 14226 14227 28
11382 14226 14228 28
11383 14226 14229 28
11384 14226 14230 28
11385 14231 14232 28
11386 14231 14233 28
11387 14231 14234 28
11388 14231 14235 28
11389 14236 14237 28
11390 14236 14238 28
11391 14236 14239 28
11392 14236 14240 28
11393 14241 14242 28
11394 14241 14243 28
11395 14241 14244 28
11396 14241 14245 28
11397 14246 14247 28
11398 14246 14248 28
11399 14246 14249 28
11400 14246 14250 28
11401 14251 14252 28
11402 14251 14253 28
11403 14251 14254 28
11404 14251 14255 28
11405 14256 14257 28
11406 14256 14258 28
11407 14256 14259 28
11408 14256 14260 28
11409 14261 14262 28
11410 14261 14263 28
11411 14261 14264 28
11412 14261 14265 28
11413 14266 14267 28
11414 14266 14268 28
11415 14266 14269 28
11416 14266 14270 28
11417 14271 14272 28
11418 14271 14273 28
11419 14271 14274 28
11420 14271 14275 28
11421 14276 14277 28
11422 14276 14278 28
11423 14276 14279 28
11424 14276 14280 28
11425 14281 14282 28
11426 14281 14283 28
11427 14281 14284 28
11428 14281 14285 28
11429 14286 14287 28
11430 14286 14288 28
11431 14286 14289 28
11432 14286 14290 28
11433 14291 14292 28
11434 14291 14293 28
11435 14291 14294 28
11436 14291 14295 28
11437 14296 14297 28
11438 14296 14298 28
11439 14296 14299 28
11440 14296 14300 28
11441 14301 14302 28
11442 14301 14303 28
11443 14301 14304 28
11444 14301 14305 28
11445 14306 14307 28
11446 14306 14308 28
11447 14306 14309 28
11448 14306 14310 28
11449 14311 14312 28
11450 14311 14313 28
11451 14311 14314 28
11452 14311 14315 28
11453 14316 14317 28
11454 14316 14318 28
11455 14316 14319 28
11456 14316 14320 28
11457 14321 14322 28
11458 14321 14323 28
11459 14321 14324 28
11460 14321 14325 28
11461 14326 14327 28
11462 14326 14328 28
11463 14326 14329 28
11464 14326 14330 28
11465 14331 14332 28
11466 14331 14333 28
11467 14331 14334 28
11468 14331 14335 28
11469 14336 14337 28
11470 14336 14338 28
11471 14336 14339 28
11472 14336 14340 28
11473 14341 14342 28
11474 14341 14343 28
11475 14341 14344 28
11476 14341 14345 28
11477 14346 14347 28
11478 14346 14348 28
11479 14346 14349 28
11480 14346 14350 28
11481 14351 14352 28
11482 14351 14353 28
11483 14351 14354 28
11484 14351 14355 28
11485 14356 14357 28
11486 14356 14358 28
11487 14356 14359 28
11488 14356 14360 28
11489 14361 14362 28
11490 14361 14363 28
11491 14361 14364 28
11492 14361 14365 28
11493 14366 14367 28
11494 14366 14368 28
11495 14366 14369 28
11496 14366 14370 28
11497 14371 14372 28
11498 14371 14373 28
11499 14371 14374 28
11500 14371 14375 28
11501 14376 14377 28
11502 14376 14378 28
11503 14376 14379 28
11504 14376 14380 28
11505 14381 14382 28
11506 14381 14383 28
11507 14381 14384 28
11508 14381 14385 28
11509 14386 14387 28
11510 14386 14388 28
11511 14386 14389 28
11512 14386 14390 28
11513 14391 14392 28
11514 14391 14393 28
11515 14391 14394 28
11516 14391 14395 28
11517 14396 14397 28
11518 14396 14398 28
11519 14396 14399 28
11520 14396 14400 28
11521 14401 14402 28
11522 14401 14403 28
11523 14401 14404 28
11524 14401 14405 28
11525 14406 14407 28
11526 14406 14408 28
11527 14406 14409 28
11528 14406 14410 28
11529 14411 14412 28
11530 14411 14413 28
11531 14411 14414 28
11532 14411 14415 28
11533 14416 14417 28
11534 14416 14418 28
11535 14416 14419 28
11536 14416 14420 28
11537 14421 14422 28
11538 14421 14423 28
11539 14421 14424 28
11540 14421 14425 28
11541 14426 14427 28
11542 14426 14428 28
11543 14426 14429 28
11544 14426 14430 28
11545 14431 14432 28
11546 14431 14433 28
11547 14431 14434 28
11548 14431 14435 28
11549 14436 14437 28
11550 14436 14438 28
11551 14436 14439 28
11552 14436 14440 28
11553 14441 14442 28
11554 14441 14443 28
11555 14441 14444 28
11556 14441 14445 28
11557 14446 14447 28
11558 14446 14448 28
11559 14446 14449 28
11560 14446 14450 28
11561 14451 14452 28
11562 14451 14453 28
11563 14451 14454 28
11564 14451 14455 28
11565 14456 14457 28
11566 14456 14458 28
11567 14456 14459 28
11568 14456 14460 28
11569 14461 14462 28
11570 14461 14463 28
11571 14461 14464 28
11572 14461 14465 28
11573 14466 14467 28
11574 14466 14468 28
11575 14466 14469 28
11576 14466 14470 28
11577 14471 14472 28
11578 14471 14473 28
11579 14471 14474 28
11580 14471 14475 28
11581 14476 14477 28
11582 14476 14478 28
11583 14476 14479 28
11584 14476 14480 28
11585 14481 14482 28
11586 14481 14483 28
11587 14481 14484 28
11588 14481 14485 28
11589 14486 14487 28
11590 14486 14488 28
11591 14486 14489 28
11592 14486 14490 28
11593 14491 14492 28
11594 14491 14493 28
11595 14491 14494 28
11596 14491 14495 28
11597 14496 14497 28
11598 14496 14498 28
11599 14496 14499 28
11600 14496 14500 28
11601 14501 14502 28
11602 14501 14503 28
11603 14501 14504 28
11604 14501 14505 28
11605 14506 14507 28
11606 14506 14508 28
11607 14506 14509 28
11608 14506 14510 28
11609 14511 14512 28
11610 14511 14513 28
11611 14511 14514 28
11612 14511 14515 28
11613 14516 14517 28
11614 14516 14518 28
11615 14516 14519 28
11616 14516 14520 28
11617 14521 14522 28
11618 14521 14523 28
11619 14521 14524 28
11620 14521 14525 28
11621 14526 14527 28
11622 14526 14528 28
11623 14526 14529 28
11624 14526 14530 28
11625 14531 14532 28
11626 14531 14533 28
11627 14531 14534 28
11628 14531 14535 28
11629 14536 14537 28
11630 14536 14538 28
11631 14536 14539 28
11632 14536 14540 28
11633 14541 14542 28
11634 14541 14543 28
11635 14541 14544 28
11636 14541 14545 28
11637 14546 14547 28
11638 14546 14548 28
11639 14546 14549 28
11640 14546 14550 28
11641 14551 14552 28
11642 14551 14553 28
11643 14551 14554 28
11644 14551 14555 28
11645 14556 14557 28
11646 14556 14558 28
11647 14556 14559 28
11648 14556 14560 28
11649 14561 14562 28
11650 14561 14563 28
11651 14561 14564 28
11652 14561 14565 28
11653 14566 14567 28
11654 14566 14568 28
11655 14566 14569 28
11656 14566 14570 28
11657 14571 14572 28
11658 14571 14573 28
11659 14571 14574 28
11660 14571 14575 28
11661 14576 14577 28
11662 14576 14578 28
11663 14576 14579 28
11664 14576 14580 28
11665 14581 14582 28
11666 14581 14583 28
11667 14581 14584 28
11668 14581 14585 28
11669 14586 14587 28
11670 14586 14588 28
11671 14586 14589 28
11672 14586 14590 28
11673 14591 14592 28
11674 14591 14593 28
11675 14591 14594 28
11676 14591 14595 28
11677 14596 14597 28
11678 14596 14598 28
11679 14596 14599 28
11680 14596 14600 28
11681 14601 14602 28
11682 14601 14603 28
11683 14601 14604 28
11684 14601 14605 28
11685 14606 14607 28
11686 14606 14608 28
11687 14606 14609 28
11688 14606 14610 28
11689 14611 14612 28
11690 14611 14613 28
11691 14611 14614 28
11692 14611 14615 28
11693 14616 14617 28
11694 14616 14618 28
11695 14616 14619 28
11696 14616 14620 28
11697 14621 14622 28
11698 14621 14623 28
11699 14621 14624 28
11700 14621 14625 28
11701 14626 14627 28
11702 14626 14628 28
11703 14626 14629 28
11704 14626 14630 28
11705 14631 14632 28
11706 14631 14633 28
11707 14631 14634 28
11708 14631 14635 28
11709 14636 14637 28
11710 14636 14638 28
11711 14636 14639 28
11712 14636 14640 28
11713 14641 14642 28
11714 14641 14643 28
11715 14641 14644 28
11716 14641 14645 28
11717 14646 14647 28
11718 14646 14648 28
11719 14646 14649 28
11720 14646 14650 28
11721 14651 14652 28
11722 14651 14653 28
11723 14651 14654 28
11724 14651 14655 28
11725 14656 14657 28
11726 14656 14658 28
11727 14656 14659 28
11728 14656 14660 28
11729 14661 14662 28
11730 14661 14663 28
11731 14661 14664 28
11732 14661 14665 28
11733 14666 14667 28
11734 14666 14668 28
11735 14666 14669 28
11736 14666 14670 28
11737 14671 14672 28
11738 14671 14673 28
11739 14671 14674 28
11740 14671 14675 28
11741 14676 14677 28
11742 14676 14678 28
11743 14676 14679 28
11744 14676 14680 28
11745 14681 14682 28
11746 14681 14683 28
11747 14681 14684 28
11748 14681 14685 28
11749 14686 14687 28
11750 14686 14688 28
11751 14686 14689 28
11752 14686 14690 28
11753 14691 14692 28
11754 14691 14693 28
11755 14691 14694 28
11756 14691 14695 28
11757 14696 14697 28
11758 14696 14698 28
11759 14696 14699 28
11760 14696 14700 28
11761 14701 14702 28
11762 14701 14703 28
11763 14701 14704 28
11764 14701 14705 28
11765 14706 14707 28
11766 14706 14708 28
11767 14706 14709 28
11768 14706 14710 28
11769 14711 14712 28
11770 14711 14713 28
11771 14711 14714 28
11772 14711 14715 28
11773 14716 14717 28
11774 14716 14718 28
11775 14716 14719 28
11776 14716 14720 28
11777 14721 14722 28
11778 14721 14723 28
11779 14721 14724 28
11780 14721 14725 28
11781 14726 14727 28
11782 14726 14728 28
11783 14726 14729 28
11784 14726 14730 28
11785 14731 14732 28
11786 14731 14733 28
11787 14731 14734 28
11788 14731 14735 28
11789 14736 14737 28
11790 14736 14738 28
11791 14736 14739 28
11792 14736 14740 28
11793 14741 14742 28
11794 14741 14743 28
11795 14741 14744 28
11796 14741 14745 28
11797 14746 14747 28
11798 14746 14748 28
11799 14746 14749 28
11800 14746 14750 28
11801 14751 14752 28
11802 14751 14753 28
11803 14751 14754 28
11804 14751 14755 28
11805 14756 14757 28
11806 14756 14758 28
11807 14756 14759 28
11808 14756 14760 28
11809 14761 14762 28
11810 14761 14763 28
11811 14761 14764 28
11812 14761 14765 28
11813 14766 14767 28
11814 14766 14768 28
11815 14766 14769 28
11816 14766 14770 28
11817 14771 14772 28
11818 14771 14773 28
11819 14771 14774 28
11820 14771 14775 28
11821 14776 14777 28
11822 14776 14778 28
11823 14776 14779 28
11824 14776 14780 28
11825 14781 14782 28
11826 14781 14783 28
11827 14781 14784 28
11828 14781 14785 28
11829 14786 14787 28
11830 14786 14788 28
11831 14786 14789 28
11832 14786 14790 28
11833 14791 14792 28
11834 14791 14793 28
11835 14791 14794 28
11836 14791 14795 28
11837 14796 14797 28
11838 14796 14798 28
11839 14796 14799 28
11840 14796 14800 28
11841 14801 14802 28
11842 14801 14803 28
11843 14801 14804 28
11844 14801 14805 28
11845 14806 14807 28
11846 14806 14808 28
11847 14806 14809 28
11848 14806 14810 28
11849 14811 14812 28
11850 14811 14813 28
11851 14811 14814 28
11852 14811 14815 28
11853 14816 14817 28
11854 14816 14818 28
11855 14816 14819 28
11856 14816 14820 28
11857 14821 14822 28
11858 14821 14823 28
11859 14821 14824 28
11860 14821 14825 28
11861 14826 14827 28
11862 14826 14828 28
11863 14826 14829 28
11864 14826 14830 28
11865 14831 14832 28
11866 14831 14833 28
11867 14831 14834 28
11868 14831 14835 28
11869 14836 14837 28
11870 14836 14838 28
11871 14836 14839 28
11872 14836 14840 28
11873 14841 14842 28
11874 14841 14843 28
11875 14841 14844 28
11876 14841 14845 28
11877 14846 14847 28
11878 14846 14848 28
11879 14846 14849 28
11880 14846 14850 28
11881 14851 14852 28
11882 14851 14853 28
11883 14851 14854 28
11884 14851 14855 28
11885 14856 14857 28
11886 14856 14858 28
11887 14856 14859 28
11888 14856 14860 28
11889 14861 14862 28
11890 14861 14863 28
11891 14861 14864 28
11892 14861 14865 28
11893 14866 14867 28
11894 14866 14868 28
11895 14866 14869 28
11896 14866 14870 28
11897 14871 14872 28
11898 14871 14873 28
11899 14871 14874 28
11900 14871 14875 28
11901 14876 14877 28
11902 14876 14878 28
11903 14876 14879 28
11904 14876 14880 28
11905 14881 14882 28
11906 14881 14883 28
11907 14881 14884 28
11908 14881 14885 28
11909 14886 14887 28
11910 14886 14888 28
11911 14886 14889 28
11912 14886 14890 28
11913 14891 14892 28
11914 14891 14893 28
11915 14891 14894 28
11916 14891 14895 28
11917 14896 14897 28
11918 14896 14898 28
11919 14896 14899 28
11920 14896 14900 28
11921 14901 14902 28
11922 14901 14903 28
11923 14901 14904 28
11924 14901 14905 28
11925 14906 14907 28
11926 14906 14908 28
11927 14906 14909 28
11928 14906 14910 28
11929 14911 14912 28
11930 14911 14913 28
11931 14911 14914 28
11932 14911 14915 28
11933 14916 14917 28
11934 14916 14918 28
11935 14916 14919 28
11936 14916 14920 28
11937 14921 14922 28
11938 14921 14923 28
11939 14921 14924 28
11940 14921 14925 28
11941 14926 14927 28
11942 14926 14928 28
11943 14926 14929 28
11944 14926 14930 28
11945 14931 14932 28
11946 14931 14933 28
11947 14931 14934 28
11948 14931 14935 28
11949 14936 14937 28
11950 14936 14938 28
11951 14936 14939 28
11952 14936 14940 28
11953 14941 14942 28
11954 14941 14943 28
11955 14941 14944 28
11956 14941 14945 28
11957 14946 14947 28
11958 14946 14948 28
11959 14946 14949 28
11960 14946 14950 28
11961 14951 14952 28
11962 14951 14953 28
11963 14951 14954 28
11964 14951 14955 28
11965 14956 14957 28
11966 14956 14958 28
11967 14956 14959 28
11968 14956 14960 28
11969 14961 14962 28
11970 14961 14963 28
11971 14961 14964 28
11972 14961 14965 28
11973 14966 14967 28
11974 14966 14968 28
11975 14966 14969 28
11976 14966 14970 28
11977 14971 14972 28
11978 14971 14973 28
11979 14971 14974 28
11980 14971 14975 28
11981 14976 14977 28
11982 14976 14978 28
11983 14976 14979 28
11984 14976 14980 28
11985 14981 14982 28
11986 14981 14983 28
11987 14981 14984 28
11988 14981 14985 28
11989 14986 14987 28
11990 14986 14988 28
11991 14986 14989 28
11992 14986 14990 28
11993 14991 14992 28
11994 14991 14993 28
11995 14991 14994 28
11996 14991 14995 28
11997 14996 14997 28
11998 14996 14998 28
11999 14996 14999 28
12000 14996 15000 28
12001 15001 15002 28
12002 15001 15003 28
12003 15001 15004 28
12004 15001 15005 28
12005 15006 15007 28
12006 15006 15008 28
12007 15006 15009 28
12008 15006 15010 28
12009 15011 15012 28
12010 15011 15013 28
12011 15011 15014 28
12012 15011 15015 28
12013 15016 15017 28
12014 15016 15018 28
12015 15016 15019 28
12016 15016 15020 28
12017 15021 15022 28
12018 15021 15023 28
12019 15021 15024 28
12020 15021 15025 28
12021 15026 15027 28
12022 15026 15028 28
12023 15026 15029 28
12024 15026 15030 28
12025 15031 15032 28
12026 15031 15033 28
12027 15031 15034 28
12028 15031 15035 28
12029 15036 15037 28
12030 15036 15038 28
12031 15036 15039 28
12032 15036 15040 28
12033 15041 15042 28
12034 15041 15043 28
12035 15041 15044 28
12036 15041 15045 28
12037 15046 15047 28
12038 15046 15048 28
12039 15046 15049 28
12040 15046 15050 28
12041 15051 15052 28
12042 15051 15053 28
12043 15051 15054 28
12044 15051 15055 28
12045 15056 15057 28
12046 15056 15058 28
12047 15056 15059 28
12048 15056 15060 28
12049 15061 15062 28
12050 15061 15063 28
12051 15061 15064 28
12052 15061 15065 28
12053 15066 15067 28
12054 15066 15068 28
12055 15066 15069 28
12056 15066 15070 28
12057 15071 15072 28
12058 15071 15073 28
12059 15071 15074 28
12060 15071 15075 28
12061 15076 15077 28
12062 15076 15078 28
12063 15076 15079 28
12064 15076 15080 28
12065 15081 15082 28
12066 15081 15083 28
12067 15081 15084 28
12068 15081 15085 28
12069 15086 15087 28
12070 15086 15088 28
12071 15086 15089 28
12072 15086 15090 28
12073 15091 15092 28
12074 15091 15093 28
12075 15091 15094 28
12076 15091 15095 28
12077 15096 15097 28
12078 15096 15098 28
12079 15096 15099 28
12080 15096 15100 28
12081 15101 15102 28
12082 15101 15103 28
12083 15101 15104 28
12084 15101 15105 28
12085 15106 15107 28
12086 15106 15108 28
12087 15106 15109 28
12088 15106 15110 28
12089 15111 15112 28
12090 15111 15113 28
12091 15111 15114 28
12092 15111 15115 28
12093 15116 15117 28
12094 15116 15118 28
12095 15116 15119 28
12096 15116 15120 28
12097 15121 15122 28
12098 15121 15123 28
12099 15121 15124 28
12100 15121 15125 28
12101 15126 15127 28
12102 15126 15128 28
12103 15126 15129 28
12104 15126 15130 28
12105 15131 15132 28
12106 15131 15133 28
12107 15131 15134 28
12108 15131 15135 28
12109 15136 15137 28
12110 15136 15138 28
12111 15136 15139 28
12112 15136 15140 28
12113 15141 15142 28
12114 15141 15143 28
12115 15141 15144 28
12116 15141 15145 28
12117 15146 15147 28
12118 15146 15148 28
12119 15146 15149 28
12120 15146 15150 28
12121 15151 15152 28
12122 15151 15153 28
12123 15151 15154 28
12124 15151 15155 28
12125 15156 15157 28
12126 15156 15158 28
12127 15156 15159 28
12128 15156 15160 28
12129 15161 15162 28
12130 15161 15163 28
12131 15161 15164 28
12132 15161 15165 28
12133 15166 15167 28
12134 15166 15168 28
12135 15166 15169 28
12136 15166 15170 28
12137 15171 15172 28
12138 15171 15173 28
12139 15171 15174 28
12140 15171 15175 28
12141 15176 15177 28
12142 15176 15178 28
12143 15176 15179 28
12144 15176 15180 28
12145 15181 15182 28
12146 15181 15183 28
12147 15181 15184 28
12148 15181 15185 28
12149 15186 15187 28
12150 15186 15188 28
12151 15186 15189 28
12152 15186 15190 28
12153 15191 15192 28
12154 15191 15193 28
12155 15191 15194 28
12156 15191 15195 28
12157 15196 15197 28
12158 15196 15198 28
12159 15196 15199 28
12160 15196 15200 28
12161 15201 15202 28
12162 15201 15203 28
12163 15201 15204 28
12164 15201 15205 28
12165 15206 15207 28
12166 15206 15208 28
12167 15206 15209 28
12168 15206 15210 28
12169 15211 15212 28
12170 15211 15213 28
12171 15211 15214 28
12172 15211 15215 28
12173 15216 15217 28
12174 15216 15218 28
12175 15216 15219 28
12176 15216 15220 28
12177 15221 15222 28
12178 15221 15223 28
12179 15221 15224 28
12180 15221 15225 28
12181 15226 15227 28
12182 15226 15228 28
12183 15226 15229 28
12184 15226 15230 28
12185 15231 15232 28
12186 15231 15233 28
12187 15231 15234 28
12188 15231 15235 28
12189 15236 15237 28
12190 15236 15238 28
12191 15236 15239 28
12192 15236 15240 28
12193 15241 15242 28
12194 15241 15243 28
12195 15241 15244 28
12196 15241 15245 28
12197 15246 15247 28
12198 15246 15248 28
12199 15246 15249 28
12200 15246 15250 28
12201 15251 15252 28
12202 15251 15253 28
12203 15251 15254 28
12204 15251 15255 28
12205 15256 15257 28
12206 15256 15258 28
12207 15256 15259 28
12208 15256 15260 28
12209 15261 15262 28
12210 15261 15263 28
12211 15261 15264 28
12212 15261 15265 28
12213 15266 15267 28
12214 15266 15268 28
12215 15266 15269 28
12216 15266 15270 28
12217 15271 15272 28
12218 15271 15273 28
12219 15271 15274 28
12220 15271 15275 28
12221 15276 15277 28
12222 15276 15278 28
12223 15276 15279 28
12224 15276 15280 28
12225 15281 15282 28
12226 15281 15283 28
12227 15281 15284 28
12228 15281 15285 28
12229 15286 15287 28
12230 15286 15288 28
12231 15286 15289 28
12232 15286 15290 28
12233 15291 15292 28
12234 15291 15293 28
12235 15291 15294 28
12236 15291 15295 28
12237 15296 15297 28
12238 15296 15298 28
12239 15296 15299 28
12240 15296 15300 28
12241 15301 15302 28
12242 15301 15303 28
12243 15301 15304 28
12244 15301 15305 28
12245 15306 15307 28
12246 15306 15308 28
12247 15306 15309 28
12248 15306 15310 28
12249 15311 15312 28
12250 15311 15313 28
12251 15311 15314 28
12252 15311 15315 28
12253 15316 15317 28
12254 15316 15318 28
12255 15316 15319 28
12256 15316 15320 28
12257 15321 15322 28
12258 15321 15323 28
12259 15321 15324 28
12260 15321 15325 28
12261 15326 15327 28
12262 15326 15328 28
12263 15326 15329 28
12264 15326 15330 28
12265 15331 15332 28
12266 15331 15333 28
12267 15331 15334 28
12268 15331 15335 28
12269 15336 15337 28
12270 15336 15338 28
12271 15336 15339 28
12272 15336 15340 28
12273 15341 15342 28
12274 15341 15343 28
12275 15341 15344 28
12276 15341 15345 28
12277 15346 15347 28
12278 15346 15348 28
12279 15346 15349 28
12280 15346 15350 28
12281 15351 15352 28
12282 15351 15353 28
12283 15351 15354 28
12284 15351 15355 28
12285 15356 15357 28
12286 15356 15358 28
12287 15356 15359 28
12288 15356 15360 28
12289 15361 15362 28
12290 15361 15363 28
12291 15361 15364 28
12292 15361 15365 28
12293 15366 15367 28
12294 15366 15368 28
12295 15366 15369 28
12296 15366 15370 28
12297 15371 15372 28
12298 15371 15373 28
12299 15371 15374 28
12300 15371 15375 28
12301 15376 15377 28
12302 15376 15378 28
12303 15376 15379 28
12304 15376 15380 28
12305 15381 15382 28
12306 15381 15383 28
12307 15381 15384 28
12308 15381 15385 28
12309 15386 15387 28
12310 15386 15388 28
12311 15386 15389 28
12312 15386 15390 28
12313 15391 15392 28
12314 15391 15393 28
12315 15391 15394 28
12316 15391 15395 28
12317 15396 15397 28
12318 15396 15398 28
12319 15396 15399 28
12320 15396 15400 28
12321 15401 15402 28
12322 15401 15403 28
12323 15401 15404 28
12324 15401 15405 28
12325 15406 15407 28
12326 15406 15408 28
12327 15406 15409 28
12328 15406 15410 28
12329 15411 15412 28
12330 15411 15413 28
12331 15411 15414 28
12332 15411 15415 28
12333 15416 15417 28
12334 15416 15418 28
12335 15416 15419 28
12336 15416 15420 28
12337 15421 15422 28
12338 15421 15423 28
12339 15421 15424 28
12340 15421 15425 28
12341 15426 15427 28
12342 15426 15428 28
12343 15426 15429 28
12344 15426 15430 28
12345 15431 15432 28
12346 15431 15433 28
12347 15431 15434 28
12348 15431 15435 28
12349 15436 15437 28
12350 15436 15438 28
12351 15436 15439 28
12352 15436 15440 28
12353 15441 15442 28
12354 15441 15443 28
12355 15441 15444 28
12356 15441 15445 28
12357 15446 15447 28
12358 15446 15448 28
12359 15446 15449 28
12360 15446 15450 28
12361 15451 15452 28
12362 15451 15453 28
12363 15451 15454 28
12364 15451 15455 28
12365 15456 15457 28
12366 15456 15458 28
12367 15456 15459 28
12368 15456 15460 28
12369 15461 15462 28
12370 15461 15463 28
12371 15461 15464 28
12372 15461 15465 28
12373 15466 15467 28
12374 15466 15468 28
12375 15466 15469 28
12376 15466 15470 28
12377 15471 15472 28
12378 15471 15473 28
12379 15471 15474 28
12380 15471 15475 28
12381 15476 15477 28
12382 15476 15478 28
12383 15476 15479 28
12384 15476 15480 28
12385 15481 15482 28
12386 15481 15483 28
12387 15481 15484 28
12388 15481 15485 28
12389 15486 15487 28
12390 15486 15488 28
12391 15486 15489 28
12392 15486 15490 28
12393 15491 15492 28
12394 15491 15493 28
12395 15491 15494 28
12396 15491 15495 28
12397 15496 15497 28
12398 15496 15498 28
12399 15496 15499 28
12400 15496 15500 28
12401 15501 15502 28
12402 15501 15503 28
12403 15501 15504 28
12404 15501 15505 28
12405 15506 15507 28
12406 15506 15508 28
12407 15506 15509 28
12408 15506 15510 28
12409 15511 15512 28
12410 15511 15513 28
12411 15511 15514 28
12412 15511 15515 28
12413 15516 15517 28
12414 15516 15518 28
12415 15516 15519 28
12416 15516 15520 28
12417 15521 15522 28
12418 15521 15523 28
12419 15521 15524 28
12420 15521 15525 28
12421 15526 15527 28
12422 15526 15528 28
12423 15526 15529 28
12424 15526 15530 28
12425 15531 15532 28
12426 15531 15533 28
12427 15531 15534 28
12428 15531 15535 28
12429 15536 15537 28
12430 15536 15538 28
12431 15536 15539 28
12432 15536 15540 28
12433 15541 15542 28
12434 15541 15543 28
12435 15541 15544 28
12436 15541 15545 28
12437 15546 15547 28
12438 15546 15548 28
12439 15546 15549 28
12440 15546 15550 28
12441 15551 15552 28
12442 15551 15553 28
12443 15551 15554 28
12444 15551 15555 28
12445 15556 15557 28
12446 15556 15558 28
12447 15556 15559 28
12448 15556 15560 28
12449 15561 15562 28
12450 15561 15563 28
12451 15561 15564 28
12452 15561 15565 28
12453 15566 15567 28
12454 15566 15568 28
12455 15566 15569 28
12456 15566 15570 28
12457 15571 15572 28
12458 15571 15573 28
12459 15571 15574 28
12460 15571 15575 28
12461 15576 15577 28
12462 15576 15578 28
12463 15576 15579 28
12464 15576 15580 28
12465 15581 15582 28
12466 15581 15583 28
12467 15581 15584 28
12468 15581 15585 28
12469 15586 15587 28
12470 15586 15588 28
12471 15586 15589 28
12472 15586 15590 28
12473 15591 15592 28
12474 15591 15593 28
12475 15591 15594 28
12476 15591 15595 28
12477 15596 15597 28
12478 15596 15598 28
12479 15596 15599 28
12480 15596 15600 28
12481 15601 15602 28
12482 15601 15603 28
12483 15601 15604 28
12484 15601 15605 28
12485 15606 15607 28
12486 15606 15608 28
12487 15606 15609 28
12488 15606 15610 28
12489 15611 15612 28
12490 15611 15613 28
12491 15611 15614 28
12492 15611 15615 28
12493 15616 15617 28
12494 15616 15618 28
12495 15616 15619 28
12496 15616 15620 28
12497 15621 15622 28
12498 15621 15623 28
12499 15621 15624 28
12500 15621 15625 28
12501 15626 15627 28
12502 15626 15628 28
12503 15626 15629 28
12504 15626 15630 28
12505 15631 15632 28
12506 15631 15633 28
12507 15631 15634 28
12508 15631 15635 28
12509 15636 15637 28
12510 15636 15638 28
12511 15636 15639 28
12512 15636 15640 28
12513 15641 15642 28
12514 15641 15643 28
12515 15641 15644 28
12516 15641 15645 28
12517 15646 15647 28
12518 15646 15648 28
12519 15646 15649 28
12520 15646 15650 28
12521 15651 15652 28
12522 15651 15653 28
12523 15651 15654 28
12524 15651 15655 28
12525 15656 15657 28
12526 15656 15658 28
12527 15656 15659 28
12528 15656 15660 28
12529 15661 15662 28
12530 15661 15663 28
12531 15661 15664 28
12532 15661 15665 28
12533 15666 15667 28
12534 15666 15668 28
12535 15666 15669 28
12536 15666 15670 28
12537 15671 15672 28
12538 15671 15673 28
12539 15671 15674 28
12540 15671 15675 28
12541 15676 15677 28
12542 15676 15678 28
12543 15676 15679 28
12544 15676 15680 28
12545 15681 15682 28
12546 15681 15683 28
12547 15681 15684 28
12548 15681 15685 28
12549 15686 15687 28
12550 15686 15688 28
12551 15686 15689 28
12552 15686 15690 28
12553 15691 15692 28
12554 15691 15693 28
12555 15691 15694 28
12556 15691 15695 28
12557 15696 15697 28
12558 15696 15698 28
12559 15696 15699 28
12560 15696 15700 28
12561 15701 15702 28
12562 15701 15703 28
12563 15701 15704 28
12564 15701 15705 28
12565 15706 15707 28
12566 15706 15708 28
12567 15706 15709 28
12568 15706 15710 28
12569 15711 15712 28
12570 15711 15713 28
12571 15711 15714 28
12572 15711 15715 28
12573 15716 15717 28
12574 15716 15718 28
12575 15716 15719 28
12576 15716 15720 28
12577 15721 15722 28
12578 15721 15723 28
12579 15721 15724 28
12580 15721 15725 28
12581 15726 15727 28
12582 15726 15728 28
12583 15726 15729 28
12584 15726 15730 28
12585 15731 15732 28
12586 15731 15733 28
12587 15731 15734 28
12588 15731 15735 28
12589 15736 15737 28
12590 15736 15738 28
12591 15736 15739 28
12592 15736 15740 28
12593 15741 15742 28
12594 15741 15743 28
12595 15741 15744 28
12596 15741 15745 28
12597 15746 15747 28
12598 15746 15748 28
12599 15746 15749 28
12600 15746 15750 28
12601 15751 15752 28
12602 15751 15753 28
12603 15751 15754 28
12604 15751 15755 28
12605 15756 15757 28
12606 15756 15758 28
12607 15756 15759 28
12608 15756 15760 28
12609 15761 15762 28
12610 15761 15763 28
12611 15761 15764 28
12612 15761 15765 28
12613 15766 15767 28
12614 15766 15768 28
12615 15766 15769 28
12616 15766 15770 28
12617 15771 15772 28
12618 15771 15773 28
12619 15771 15774 28
12620 15771 15775 28
12621 15776 15777 28
12622 15776 15778 28
12623 15776 15779 28
12624 15776 15780 28
12625 15781 15782 28
12626 15781 15783 28
12627 15781 15784 28
12628 15781 15785 28
12629 15786 15787 28
12630 15786 15788 28
12631 15786 15789 28
12632 15786 15790 28
12633 15791 15792 28
12634 15791 15793 28
12635 15791 15794 28
12636 15791 15795 28
12637 15796 15797 28
12638 15796 15798 28
12639 15796 15799 28
12640 15796 15800 28
12641 15801 15802 28
12642 15801 15803 28
12643 15801 15804 28
12644 15801 15805 28
12645 15806 15807 28
12646 15806 15808 28
12647 15806 15809 28
12648 15806 15810 28
12649 15811 15812 28
12650 15811 15813 28
12651 15811 15814 28
12652 15811 15815 28
12653 15816 15817 28
12654 15816 15818 28
12655 15816 15819 28
12656 15816 15820 28
12657 15821 15822 28
12658 15821 15823 28
12659 15821 15824 28
12660 15821 15825 28
12661 15826 15827 28
12662 15826 15828 28
12663 15826 15829 28
12664 15826 15830 28
12665 15831 15832 28
12666 15831 15833 28
12667 15831 15834 28
12668 15831 15835 28
12669 15836 15837 28
12670 15836 15838 28
12671 15836 15839 28
12672 15836 15840 28
12673 15841 15842 28
12674 15841 15843 28
12675 15841 15844 28
12676 15841 15845 28
12677 15846 15847 28
12678 15846 15848 28
12679 15846 15849 28
12680 15846 15850 28
12681 15851 15852 28
12682 15851 15853 28
12683 15851 15854 28
12684 15851 15855 28
12685 15856 15857 28
12686 15856 15858 28
12687 15856 15859 28
12688 15856 15860 28
12689 15861 15862 28
12690 15861 15863 28
12691 15861 15864 28
12692 15861 15865 28
12693 15866 15867 28
12694 15866 15868 28
12695 15866 15869 28
12696 15866 15870 28
12697 15871 15872 28
12698 15871 15873 28
12699 15871 15874 28
12700 15871 15875 28
12701 15876 15877 28
12702 15876 15878 28
12703 15876 15879 28
12704 15876 15880 28
12705 15881 15882 28
12706 15881 15883 28
12707 15881 15884 28
12708 15881 15885 28
12709 15886 15887 28
12710 15886 15888 28
12711 15886 15889 28
12712 15886 15890 28
12713 15891 15892 28
12714 15891 15893 28
12715 15891 15894 28
12716 15891 15895 28
12717 15896 15897 28
12718 15896 15898 28
12719 15896 15899 28
12720 15896 15900 28
12721 15901 15902 28
12722 15901 15903 28
12723 15901 15904 28
12724 15901 15905 28
12725 15906 15907 28
12726 15906 15908 28
12727 15906 15909 28
12728 15906 15910 28
12729 15911 15912 28
12730 15911 15913 28
12731 15911 15914 28
12732 15911 15915 28
12733 15916 15917 28
12734 15916 15918 28
12735 15916 15919 28
12736 15916 15920 28
12737 15921 15922 28
12738 15921 15923 28
12739 15921 15924 28
12740 15921 15925 28
12741 15926 15927 28
12742 15926 15928 28
12743 15926 15929 28
12744 15926 15930 28
12745 15931 15932 28
12746 15931 15933 28
12747 15931 15934 28
12748 15931 15935 28
12749 15936 15937 28
12750 15936 15938 28
12751 15936 15939 28
12752 15936 15940 28
12753 15941 15942 28
12754 15941 15943 28
12755 15941 15944 28
12756 15941 15945 28
12757 15946 15947 28
12758 15946 15948 28
12759 15946 15949 28
12760 15946 15950 28
12761 15951 15952 28
12762 15951 15953 28
12763 15951 15954 28
12764 15951 15955 28
12765 15956 15957 28
12766 15956 15958 28
12767 15956 15959 28
12768 15956 15960 28
12769 15961 15962 28
12770 15961 15963 28
12771 15961 15964 28
12772 15961 15965 28
12773 15966 15967 28
12774 15966 15968 28
12775 15966 15969 28
12776 15966 15970 28
12777 15971 15972 28
12778 15971 15973 28
12779 15971 15974 28
12780 15971 15975 28
12781 15976 15977 28
12782 15976 15978 28
12783 15976 15979 28
12784 15976 15980 28
12785 15981 15982 28
12786 15981 15983 28
12787 15981 15984 28
12788 15981 15985 28
12789 15986 15987 28
12790 15986 15988 28
12791 15986 15989 28
12792 15986 15990 28
12793 15991 15992 28
12794 15991 15993 28
12795 15991 15994 28
12796 15991 15995 28
12797 15996 15997 28
12798 15996 15998 28
12799 15996 15999 28
12800 15996 16000 28
12801 16001 16002 28
12802 16001 16003 28
12803 16001 16004 28
12804 16001 16005 28
12805 16006 16007 28
12806 16006 16008 28
12807 16006 16009 28
12808 16006 16010 28
12809 16011 16012 28
12810 16011 16013 28
12811 16011 16014 28
12812 16011 16015 28
12813 16016 16017 28
12814 16016 16018 28
12815 16016 16019 28
12816 16016 16020 28
12817 16021 16022 28
12818 16021 16023 28
12819 16021 16024 28
12820 16021 16025 28
12821 16026 16027 28
12822 16026 16028 28
12823 16026 16029 28
12824 16026 16030 28
12825 16031 16032 28
12826 16031 16033 28
12827 16031 16034 28
12828 16031 16035 28
12829 16036 16037 28
12830 16036 16038 28
12831 16036 16039 28
12832 16036 16040 28
12833 16041 16042 28
12834 16041 16043 28
12835 16041 16044 28
12836 16041 16045 28
12837 16046 16047 28
12838 16046 16048 28
12839 16046 16049 28
12840 16046 16050 28
12841 16051 16052 28
12842 16051 16053 28
12843 16051 16054 28
12844 16051 16055 28
12845 16056 16057 28
12846 16056 16058 28
12847 16056 16059 28
12848 16056 16060 28
12849 16061 16062 28
12850 16061 16063 28
12851 16061 16064 28
12852 16061 16065 28
12853 16066 16067 28
12854 16066 16068 28
12855 16066 16069 28
12856 16066 16070 28
12857 16071 16072 28
12858 16071 16073 28
12859 16071 16074 28
12860 16071 16075 28
12861 16076 16077 28
12862 16076 16078 28
12863 16076 16079 28
12864 16076 16080 28
12865 16081 16082 28
12866 16081 16083 28
12867 16081 16084 28
12868 16081 16085 28
12869 16086 16087 28
12870 16086 16088 28
12871 16086 16089 28
12872 16086 16090 28
12873 16091 16092 28
12874 16091 16093 28
12875 16091 16094 28
12876 16091 16095 28
12877 16096 16097 28
12878 16096 16098 28
12879 16096 16099 28
12880 16096 16100 28
12881 16101 16102 28
12882 16101 16103 28
12883 16101 16104 28
12884 16101 16105 28
12885 16106 16107 28
12886 16106 16108 28
12887 16106 16109 28
12888 16106 16110 28
12889 16111 16112 28
12890 16111 16113 28
12891 16111 16114 28
12892 16111 16115 28
12893 16116 16117 28
12894 16116 16118 28
12895 16116 16119 28
12896 16116 16120 28
12897 16121 16122 28
12898 16121 16123 28
12899 16121 16124 28
12900 16121 16125 28
12901 16126 16127 28
12902 16126 16128 28
12903 16126 16129 28
12904 16126 16130 28
12905 16131 16132 28
12906 16131 16133 28
12907 16131 16134 28
12908 16131 16135 28
12909 16136 16137 28
12910 16136 16138 28
12911 16136 16139 28
12912 16136 16140 28
12913 16141 16142 28
12914 16141 16143 28
12915 16141 16144 28
12916 16141 16145 28
12917 16146 16147 28
12918 16146 16148 28
12919 16146 16149 28
12920 16146 16150 28
12921 16151 16152 28
12922 16151 16153 28
12923 16151 16154 28
12924 16151 16155 28
12925 16156 16157 28
12926 16156 16158 28
12927 16156 16159 28
12928 16156 16160 28
12929 16161 16162 28
12930 16161 16163 28
12931 16161 16164 28
12932 16161 16165 28
12933 16166 16167 28
12934 16166 16168 28
12935 16166 16169 28
12936 16166 16170 28
12937 16171 16172 28
12938 16171 16173 28
12939 16171 16174 28
12940 16171 16175 28
12941 16176 16177 28
12942 16176 16178 28
12943 16176 16179 28
12944 16176 16180 28
12945 16181 16182 28
12946 16181 16183 28
12947 16181 16184 28
12948 16181 16185 28
12949 16186 16187 28
12950 16186 16188 28
12951 16186 16189 28
12952 16186 16190 28
12953 16191 16192 28
12954 16191 16193 28
12955 16191 16194 28
12956 16191 16195 28
12957 16196 16197 28
12958 16196 16198 28
12959 16196 16199 28
12960 16196 16200 28
12961 16201 16202 28
12962 16201 16203 28
12963 16201 16204 28
12964 16201 16205 28
12965 16206 16207 28
12966 16206 16208 28
12967 16206 16209 28
12968 16206 16210 28
12969 16211 16212 28
12970 16211 16213 28
12971 16211 16214 28
12972 16211 16215 28
12973 16216 16217 28
12974 16216 16218 28
12975 16216 16219 28
12976 16216 16220 28
12977 16221 16222 28
12978 16221 16223 28
12979 16221 16224 28
12980 16221 16225 28
12981 16226 16227 28
12982 16226 16228 28
12983 16226 16229 28
12984 16226 16230 28
12985 16231 16232 28
12986 16231 16233 28
12987 16231 16234 28
12988 16231 16235 28
12989 16236 16237 28
12990 16236 16238 28
12991 16236 16239 28
12992 16236 16240 28
12993 16241 16242 28
12994 16241 16243 28
12995 16241 16244 28
12996 16241 16245 28
12997 16246 16247 28
12998 16246 16248 28
12999 16246 16249 28
13000 16246 16250 28
13001 16251 16252 28
13002 16251 16253 28
13003 16251 16254 28
13004 16251 16255 28
13005 16256 16257 28
13006 16256 16258 28
13007 16256 16259 28
13008 16256 16260 28
13009 16261 16262 28
13010 16261 16263 28
13011 16261 16264 28
13012 16261 16265 28
13013 16266 16267 28
13014 16266 16268 28
13015 16266 16269 28
13016 16266 16270 28
13017 16271 16272 28
13018 16271 16273 28
13019 16271 16274 28
13020 16271 16275 28
13021 16276 16277 28
13022 16276 16278 28
13023 16276 16279 28
13024 16276 16280 28
13025 16281 16282 28
13026 16281 16283 28
13027 16281 16284 28
13028 16281 16285 28
13029 16286 16287 28
13030 16286 16288 28
13031 16286 16289 28
13032 16286 16290 28
13033 16291 16292 28
13034 16291 16293 28
13035 16291 16294 28
13036 16291 16295 28
13037 16296 16297 28
13038 16296 16298 28
13039 16296 16299 28
13040 16296 16300 28
13041 16301 16302 28
13042 16301 16303 28
13043 16301 16304 28
13044 16301 16305 28
13045 16306 16307 28
13046 16306 16308 28
13047 16306 16309 28
13048 16306 16310 28
13049 16311 16312 28
13050 16311 16313 28
13051 16311 16314 28
13052 16311 16315 28
13053 16316 16317 28
13054 16316 16318 28
13055 16316 16319 28
13056 16316 16320 28
13057 16321 16322 28
13058 16321 16323 28
13059 16321 16324 28
13060 16321 16325 28
13061 16326 16327 28
13062 16326 16328 28
13063 16326 16329 28
13064 16326 16330 28
13065 16331 16332 28
13066 16331 16333 28
13067 16331 16334 28
13068 16331 16335 28
13069 16336 16337 28
13070 16336 16338 28
13071 16336 16339 28
13072 16336 16340 28
13073 16341 16342 28
13074 16341 16343 28
13075 16341 16344 28
13076 16341 16345 28
13077 16346 16347 28
13078 16346 16348 28
13079 16346 16349 28
13080 16346 16350 28
13081 16351 16352 28
13082 16351 16353 28
13083 16351 16354 28
13084 16351 16355 28
13085 16356 16357 28
13086 16356 16358 28
13087 16356 16359 28
13088 16356 16360 28
13089 16361 16362 28
13090 16361 16363 28
13091 16361 16364 28
13092 16361 16365 28
13093 16366 16367 28
13094 16366 16368 28
13095 16366 16369 28
13096 16366 16370 28
13097 16371 16372 28
13098 16371 16373 28
13099 16371 16374 28
13100 16371 16375 28
13101 16376 16377 28
13102 16376 16378 28
13103 16376 16379 28
13104 16376 16380 28
13105 16381 16382 28
13106 16381 16383 28
13107 16381 16384 28
13108 16381 16385 28
13109 16386 16387 28
13110 16386 16388 28
13111 16386 16389 28
13112 16386 16390 28
13113 16391 16392 28
13114 16391 16393 28
13115 16391 16394 28
13116 16391 16395 28
13117 16396 16397 28
13118 16396 16398 28
13119 16396 16399 28
13120 16396 16400 28
13121 16401 16402 28
13122 16401 16403 28
13123 16401 16404 28
13124 16401 16405 28
13125 16406 16407 28
13126 16406 16408 28
13127 16406 16409 28
13128 16406 16410 28
13129 16411 16412 28
13130 16411 16413 28
13131 16411 16414 28
13132 16411 16415 28
13133 16416 16417 28
13134 16416 16418 28
13135 16416 16419 28
13136 16416 16420 28
13137 16421 16422 28
13138 16421 16423 28
13139 16421 16424 28
13140 16421 16425 28
13141 16426 16427 28
13142 16426 16428 28
13143 16426 16429 28
13144 16426 16430 28
13145 16431 16432 28
13146 16431 16433 28
13147 16431 16434 28
13148 16431 16435 28
13149 16436 16437 28
13150 16436 16438 28
13151 16436 16439 28
13152 16436 16440 28
13153 16441 16442 28
13154 16441 16443 28
13155 16441 16444 28
13156 16441 16445 28
13157 16446 16447 28
13158 16446 16448 28
13159 16446 16449 28
13160 16446 16450 28
13161 16451 16452 28
13162 16451 16453 28
13163 16451 16454 28
13164 16451 16455 28
13165 16456 16457 28
13166 16456 16458 28
13167 16456 16459 28
13168 16456 16460 28
13169 16461 16462 28
13170 16461 16463 28
13171 16461 16464 28
13172 16461 16465 28
13173 16466 16467 28
13174 16466 16468 28
13175 16466 16469 28
13176 16466 16470 28
13177 16471 16472 28
13178 16471 16473 28
13179 16471 16474 28
13180 16471 16475 28
13181 16476 16477 28
13182 16476 16478 28
13183 16476 16479 28
13184 16476 16480 28
13185 16481 16482 28
13186 16481 16483 28
13187 16481 16484 28
13188 16481 16485 28
13189 16486 16487 28
13190 16486 16488 28
13191 16486 16489 28
13192 16486 16490 28
13193 16491 16492 28
13194 16491 16493 28
13195 16491 16494 28
13196 16491 16495 28
13197 16496 16497 28
13198 16496 16498 28
13199 16496 16499 28
13200 16496 16500 28
13201 16501 16502 28
13202 16501 16503 28
13203 16501 16504 28
13204 16501 16505 28
13205 16506 16507 28
13206 16506 16508 28
13207 16506 16509 28
13208 16506 16510 28
13209 16511 16512 28
13210 16511 16513 28
13211 16511 16514 28
13212 16511 16515 28
13213 16516 16517 28
13214 16516 16518 28
13215 16516 16519 28
13216 16516 16520 28
13217 16521 16522 28
13218 16521 16523 28
13219 16521 16524 28
13220 16521 16525 28
13221 16526 16527 28
13222 16526 16528 28
13223 16526 16529 28
13224 16526 16530 28
13225 16531 16532 28
13226 16531 16533 28
13227 16531 16534 28
13228 16531 16535 28
13229 16536 16537 28
13230 16536 16538 28
13231 16536 16539 28
13232 16536 16540 28
13233 16541 16542 28
13234 16541 16543 28
13235 16541 16544 28
13236 16541 16545 28
13237 16546 16547 28
13238 16546 16548 28
13239 16546 16549 28
13240 16546 16550 28
13241 16551 16552 28
13242 16551 16553 28
13243 16551 16554 28
13244 16551 16555 28
13245 16556 16557 28
13246 16556 16558 28
13247 16556 16559 28
13248 16556 16560 28
13249 16561 16562 28
13250 16561 16563 28
13251 16561 16564 28
13252 16561 16565 28
13253 16566 16567 28
13254 16566 16568 28
13255 16566 16569 28
13256 16566 16570 28
13257 16571 16572 28
13258 16571 16573 28
13259 16571 16574 28
13260 16571 16575 28
13261 16576 16577 28
13262 16576 16578 28
13263 16576 16579 28
13264 16576 16580 28
13265 16581 16582 28
13266 16581 16583 28
13267 16581 16584 28
13268 16581 16585 28
13269 16586 16587 28
13270 16586 16588 28
13271 16586 16589 28
13272 16586 16590 28
13273 16591 16592 28
13274 16591 16593 28
13275 16591 16594 28
13276 16591 16595 28
13277 16596 16597 28
13278 16596 16598 28
13279 16596 16599 28
13280 16596 16600 28
13281 16601 16602 28
13282 16601 16603 28
13283 16601 16604 28
13284 16601 16605 28
13285 16606 16607 28
13286 16606 16608 28
13287 16606 16609 28
13288 16606 16610 28
13289 16611 16612 28
13290 16611 16613 28
13291 16611 16614 28
13292 16611 16615 28
13293 16616 16617 28
13294 16616 16618 28
13295 16616 16619 28
13296 16616 16620 28
13297 16621 16622 28
13298 16621 16623 28
13299 16621 16624 28
13300 16621 16625 28
13301 16626 16627 28
13302 16626 16628 28
13303 16626 16629 28
13304 16626 16630 28
13305 16631 16632 28
13306 16631 16633 28
13307 16631 16634 28
13308 16631 16635 28
13309 16636 16637 28
13310 16636 16638 28
13311 16636 16639 28
13312 16636 16640 28
13313 16641 16642 28
13314 16641 16643 28
13315 16641 16644 28
13316 16641 16645 28
13317 16646 16647 28
13318 16646 16648 28
13319 16646 16649 28
13320 16646 16650 28
13321 16651 16652 28
13322 16651 16653 28
13323 16651 16654 28
13324 16651 16655 28
13325 16656 16657 28
13326 16656 16658 28
13327 16656 16659 28
13328 16656 16660 28
13329 16661 16662 28
13330 16661 16663 28
13331 16661 16664 28
13332 16661 16665 28
13333 16666 16667 28
13334 16666 16668 28
13335 16666 16669 28
13336 16666 16670 28
13337 16671 16672 28
13338 16671 16673 28
13339 16671 16674 28
13340 16671 16675 28
13341 16676 16677 28
13342 16676 16678 28
13343 16676 16679 28
13344 16676 16680 28
13345 16681 16682 28
13346 16681 16683 28
13347 16681 16684 28
13348 16681 16685 28
13349 16686 16687 28
13350 16686 16688 28
13351 16686 16689 28
13352 16686 16690 28
13353 16691 16692 28
13354 16691 16693 28
13355 16691 16694 28
13356 16691 16695 28
13357 16696 16697 28
13358 16696 16698 28
13359 16696 16699 28
13360 16696 16700 28
13361 16701 16702 28
13362 16701 16703 28
13363 16701 16704 28
13364 16701 16705 28
13365 16706 16707 28
13366 16706 16708 28
13367 16706 16709 28
13368 16706 16710 28
13369 16711 16712 28
13370 16711 16713 28
13371 16711 16714 28
13372 16711 16715 28
13373 16716 16717 28
13374 16716 16718 28
13375 16716 16719 28
13376 16716 16720 28
13377 16721 16722 28
13378 16721 16723 28
13379 16721 16724 28
13380 16721 16725 28
13381 16726 16727 28
13382 16726 16728 28
13383 16726 16729 28
13384 16726 16730 28
13385 16731 16732 28
13386 16731 16733 28
13387 16731 16734 28
13388 16731 16735 28
13389 16736 16737 28
13390 16736 16738 28
13391 16736 16739 28
13392 16736 16740 28
13393 16741 16742 28
13394 16741 16743 28
13395 16741 16744 28
13396 16741 16745 28
13397 16746 16747 28
13398 16746 16748 28
13399 16746 16749 28
13400 16746 16750 28
13401 16751 16752 28
13402 16751 16753 28
13403 16751 16754 28
13404 16751 16755 28
13405 16756 16757 28
13406 16756 16758 28
13407 16756 16759 28
13408 16756 16760 28
13409 16761 16762 28
13410 16761 16763 28
13411 16761 16764 28
13412 16761 16765 28
13413 16766 16767 28
13414 16766 16768 28
13415 16766 16769 28
13416 16766 16770 28
13417 16771 16772 28
13418 16771 16773 28
13419 16771 16774 28
13420 16771 16775 28
13421 16776 16777 28
13422 16776 16778 28
13423 16776 16779 28
13424 16776 16780 28
13425 16781 16782 28
13426 16781 16783 28
13427 16781 16784 28
13428 16781 16785 28
13429 16786 16787 28
13430 16786 16788 28
13431 16786 16789 28
13432 16786 16790 28
13433 16791 16792 28
13434 16791 16793 28
13435 16791 16794 28
13436 16791 16795 28
13437 16796 16797 28
13438 16796 16798 28
13439 16796 16799 28
13440 16796 16800 28
13441 16801 16802 28
13442 16801 16803 28
13443 16801 16804 28
13444 16801 16805 28
13445 16806 16807 28
13446 16806 16808 28
13447 16806 16809 28
13448 16806 16810 28
13449 16811 16812 28
13450 16811 16813 28
13451 16811 16814 28
13452 16811 16815 28
13453 16816 16817 28
13454 16816 16818 28
13455 16816 16819 28
13456 16816 16820 28
13457 16821 16822 28
13458 16821 16823 28
13459 16821 16824 28
13460 16821 16825 28
13461 16826 16827 28
13462 16826 16828 28
13463 16826 16829 28
13464 16826 16830 28
13465 16831 16832 28
13466 16831 16833 28
13467 16831 16834 28
13468 16831 16835 28
13469 16836 16837 28
13470 16836 16838 28
13471 16836 16839 28
13472 16836 16840 28
13473 16841 16842 28
13474 16841 16843 28
13475 16841 16844 28
13476 16841 16845 28
13477 16846 16847 28
13478 16846 16848 28
13479 16846 16849 28
13480 16846 16850 28
13481 16851 16852 28
13482 16851 16853 28
13483 16851 16854 28
13484 16851 16855 28
13485 16856 16857 28
13486 16856 16858 28
13487 16856 16859 28
13488 16856 16860 28
13489 16861 16862 28
13490 16861 16863 28
13491 16861 16864 28
13492 16861 16865 28
13493 16866 16867 28
13494 16866 16868 28
13495 16866 16869 28
13496 16866 16870 28
13497 16871 16872 28
13498 16871 16873 28
13499 16871 16874 28
13500 16871 16875 28
13501 16876 16877 28
13502 16876 16878 28
13503 16876 16879 28
13504 16876 16880 28
13505 16881 16882 28
13506 16881 16883 28
13507 16881 16884 28
13508 16881 16885 28
13509 16886 16887 28
13510 16886 16888 28
13511 16886 16889 28
13512 16886 16890 28
13513 16891 16892 28
13514 16891 16893 28
13515 16891 16894 28
13516 16891 16895 28
13517 16896 16897 28
13518 16896 16898 28
13519 16896 16899 28
13520 16896 16900 28
13521 16901 16902 28
13522 16901 16903 28
13523 16901 16904 28
13524 16901 16905 28
13525 16906 16907 28
13526 16906 16908 28
13527 16906 16909 28
13528 16906 16910 28
13529 16911 16912 28
13530 16911 16913 28
13531 16911 16914 28
13532 16911 16915 28
13533 16916 16917 28
13534 16916 16918 28
13535 16916 16919 28
13536 16916 16920 28
13537 16921 16922 28
13538 16921 16923 28
13539 16921 16924 28
13540 16921 16925 28
13541 16926 16927 28
13542 16926 16928 28
13543 16926 16929 28
13544 16926 16930 28
13545 16931 16932 28
13546 16931 16933 28
13547 16931 16934 28
13548 16931 16935 28
13549 16936 16937 28
13550 16936 16938 28
13551 16936 16939 28
13552 16936 16940 28
13553 16941 16942 28
13554 16941 16943 28
13555 16941 16944 28
13556 16941 16945 28
13557 16946 16947 28
13558 16946 16948 28
13559 16946 16949 28
13560 16946 16950 28
13561 16951 16952 28
13562 16951 16953 28
13563 16951 16954 28
13564 16951 16955 28
13565 16956 16957 28
13566 16956 16958 28
13567 16956 16959 28
13568 16956 16960 28
13569 16961 16962 28
13570 16961 16963 28
13571 16961 16964 28
13572 16961 16965 28
13573 16966 16967 28
13574 16966 16968 28
13575 16966 16969 28
13576 16966 16970 28
13577 16971 16972 28
13578 16971 16973 28
13579 16971 16974 28
13580 16971 16975 28
13581 16976 16977 28
13582 16976 16978 28
13583 16976 16979 28
13584 16976 16980 28
13585 16981 16982 28
13586 16981 16983 28
13587 16981 16984 28
13588 16981 16985 28
13589 16986 16987 28
13590 16986 16988 28
13591 16986 16989 28
13592 16986 16990 28
13593 16991 16992 28
13594 16991 16993 28
13595 16991 16994 28
13596 16991 16995 28
13597 16996 16997 28
13598 16996 16998 28
13599 16996 16999 28
13600 16996 17000 28
13601 17001 17002 28
13602 17001 17003 28
13603 17001 17004 28
13604 17001 17005 28
13605 17006 17007 28
13606 17006 17008 28
13607 17006 17009 28
13608 17006 17010 28
13609 17011 17012 28
13610 17011 17013 28
13611 17011 17014 28
13612 17011 17015 28
13613 17016 17017 28
13614 17016 17018 28
13615 17016 17019 28
13616 17016 17020 28
13617 17021 17022 28
13618 17021 17023 28
13619 17021 17024 28
13620 17021 17025 28
13621 17026 17027 28
13622 17026 17028 28
13623 17026 17029 28
13624 17026 17030 28
13625 17031 17032 28
13626 17031 17033 28
13627 17031 17034 28
13628 17031 17035 28
13629 17036 17037 28
13630 17036 17038 28
13631 17036 17039 28
13632 17036 17040 28
13633 17041 17042 28
13634 17041 17043 28
13635 17041 17044 28
13636 17041 17045 28
13637 17046 17047 28
13638 17046 17048 28
13639 17046 17049 28
13640 17046 17050 28
13641 17051 17052 28
13642 17051 17053 28
13643 17051 17054 28
13644 17051 17055 28
13645 17056 17057 28
13646 17056 17058 28
13647 17056 17059 28
13648 17056 17060 28
13649 17061 17062 28
13650 17061 17063 28
13651 17061 17064 28
13652 17061 17065 28
13653 17066 17067 28
13654 17066 17068 28
13655 17066 17069 28
13656 17066 17070 28
13657 17071 17072 28
13658 17071 17073 28
13659 17071 17074 28
13660 17071 17075 28
13661 17076 17077 28
13662 17076 17078 28
13663 17076 17079 28
13664 17076 17080 28
13665 17081 17082 28
13666 17081 17083 28
13667 17081 17084 28
13668 17081 17085 28
13669 17086 17087 28
13670 17086 17088 28
13671 17086 17089 28
13672 17086 17090 28
13673 17091 17092 28
13674 17091 17093 28
13675 17091 17094 28
13676 17091 17095 28
13677 17096 17097 28
13678 17096 17098 28
13679 17096 17099 28
13680 17096 17100 28
13681 17101 17102 28
13682 17101 17103 28
13683 17101 17104 28
13684 17101 17105 28
13685 17106 17107 28
13686 17106 17108 28
13687 17106 17109 28
13688 17106 17110 28
13689 17111 17112 28
13690 17111 17113 28
13691 17111 17114 28
13692 17111 17115 28
13693 17116 17117 28
13694 17116 17118 28
13695 17116 17119 28
13696 17116 17120 28
13697 17121 17122 28
13698 17121 17123 28
13699 17121 17124 28
13700 17121 17125 28
13701 17126 17127 28
13702 17126 17128 28
13703 17126 17129 28
13704 17126 17130 28
13705 17131 17132 28
13706 17131 17133 28
13707 17131 17134 28
13708 17131 17135 28
13709 17136 17137 28
13710 17136 17138 28
13711 17136 17139 28
13712 17136 17140 28
13713 17141 17142 28
13714 17141 17143 28
13715 17141 17144 28
13716 17141 17145 28
13717 17146 17147 28
13718 17146 17148 28
13719 17146 17149 28
13720 17146 17150 28
13721 17151 17152 28
13722 17151 17153 28
13723 17151 17154 28
13724 17151 17155 28
13725 17156 17157 28
13726 17156 17158 28
13727 17156 17159 28
13728 17156 17160 28
13729 17161 17162 28
13730 17161 17163 28
13731 17161 17164 28
13732 17161 17165 28
13733 17166 17167 28
13734 17166 17168 28
13735 17166 17169 28
13736 17166 17170 28
13737 17171 17172 28
13738 17171 17173 28
13739 17171 17174 28
13740 17171 17175 28
13741 17176 17177 28
13742 17176 17178 28
13743 17176 17179 28
13744 17176 17180 28
13745 17181 17182 28
13746 17181 17183 28
13747 17181 17184 28
13748 17181 17185 28
13749 17186 17187 28
13750 17186 17188 28
13751 17186 17189 28
13752 17186 17190 28
13753 17191 17192 28
13754 17191 17193 28
13755 17191 17194 28
13756 17191 17195 28
13757 17196 17197 28
13758 17196 17198 28
13759 17196 17199 28
13760 17196 17200 28
13761 17201 17202 28
13762 17201 17203 28
13763 17201 17204 28
13764 17201 17205 28
13765 17206 17207 28
13766 17206 17208 28
13767 17206 17209 28
13768 17206 17210 28
13769 17211 17212 28
13770 17211 17213 28
13771 17211 17214 28
13772 17211 17215 28
13773 17216 17217 28
13774 17216 17218 28
13775 17216 17219 28
13776 17216 17220 28
13777 17221 17222 28
13778 17221 17223 28
13779 17221 17224 28
13780 17221 17225 28
13781 17226 17227 28
13782 17226 17228 28
13783 17226 17229 28
13784 17226 17230 28
13785 17231 17232 28
13786 17231 17233 28
13787 17231 17234 28
13788 17231 17235 28
13789 17236 17237 28
13790 17236 17238 28
13791 17236 17239 28
13792 17236 17240 28
13793 17241 17242 28
13794 17241 17243 28
13795 17241 17244 28
13796 17241 17245 28
13797 17246 17247 28
13798 17246 17248 28
13799 17246 17249 28
13800 17246 17250 28
13801 17251 17252 28
13802 17251 17253 28
13803 17251 17254 28
13804 17251 17255 28
13805 17256 17257 28
13806 17256 17258 28
13807 17256 17259 28
13808 17256 17260 28
13809 17261 17262 28
13810 17261 17263 28
13811 17261 17264 28
13812 17261 17265 28
13813 17266 17267 28
13814 17266 17268 28
13815 17266 17269 28
13816 17266 17270 28
13817 17271 17272 28
13818 17271 17273 28
13819 17271 17274 28
13820 17271 17275 28
13821 17276 17277 28
13822 17276 17278 28
13823 17276 17279 28
13824 17276 17280 28
13825 17281 17282 28
13826 17281 17283 28
13827 17281 17284 28
13828 17281 17285 28
13829 17286 17287 28
13830 17286 17288 28
13831 17286 17289 28
13832 17286 17290 28
13833 17291 17292 28
13834 17291 17293 28
13835 17291 17294 28
13836 17291 17295 28
13837 17296 17297 28
13838 17296 17298 28
13839 17296 17299 28
13840 17296 17300 28
13841 17301 17302 28
13842 17301 17303 28
13843 17301 17304 28
13844 17301 17305 28
13845 17306 17307 28
13846 17306 17308 28
13847 17306 17309 28
13848 17306 17310 28
13849 17311 17312 28
13850 17311 17313 28
13851 17311 17314 28
13852 17311 17315 28
13853 17316 17317 28
13854 17316 17318 28
13855 17316 17319 28
13856 17316 17320 28
13857 17321 17322 28
13858 17321 17323 28
13859 17321 17324 28
13860 17321 17325 28
13861 17326 17327 28
13862 17326 17328 28
13863 17326 17329 28
13864 17326 17330 28
13865 17331 17332 28
13866 17331 17333 28
13867 17331 17334 28
13868 17331 17335 28
13869 17336 17337 28
13870 17336 17338 28
13871 17336 17339 28
13872 17336 17340 28
13873 17341 17342 28
13874 17341 17343 28
13875 17341 17344 28
13876 17341 17345 28
13877 17346 17347 28
13878 17346 17348 28
13879 17346 17349 28
13880 17346 17350 28
13881 17351 17352 28
13882 17351 17353 28
13883 17351 17354 28
13884 17351 17355 28
13885 17356 17357 28
13886 17356 17358 28
13887 17356 17359 28
13888 17356 17360 28
13889 17361 17362 28
13890 17361 17363 28
13891 17361 17364 28
13892 17361 17365 28
13893 17366 17367 28
13894 17366 17368 28
13895 17366 17369 28
13896 17366 17370 28
13897 17371 17372 28
13898 17371 17373 28
13899 17371 17374 28
13900 17371 17375 28
13901 17376 17377 28
13902 17376 17378 28
13903 17376 17379 28
13904 17376 17380 28
13905 17381 17382 28
13906 17381 17383 28
13907 17381 17384 28
13908 17381 17385 28
13909 17386 17387 28
13910 17386 17388 28
13911 17386 17389 28
13912 17386 17390 28
13913 17391 17392 28
13914 17391 17393 28
13915 17391 17394 28
13916 17391 17395 28
13917 17396 17397 28
13918 17396 17398 28
13919 17396 17399 28
13920 17396 17400 28
13921 17401 17402 28
13922 17401 17403 28
13923 17401 17404 28
13924 17401 17405 28
13925 17406 17407 28
13926 17406 17408 28
13927 17406 17409 28
13928 17406 17410 28
13929 17411 17412 28
13930 17411 17413 28
13931 17411 17414 28
13932 17411 17415 28
13933 17416 17417 28
13934 17416 17418 28
13935 17416 17419 28
13936 17416 17420 28
13937 17421 17422 28
13938 17421 17423 28
13939 17421 17424 28
13940 17421 17425 28
13941 17426 17427 28
13942 17426 17428 28
13943 17426 17429 28
13944 17426 17430 28
13945 17431 17432 28
13946 17431 17433 28
13947 17431 17434 28
13948 17431 17435 28
13949 17436 17437 28
13950 17436 17438 28
13951 17436 17439 28
13952 17436 17440 28
13953 17441 17442 28
13954 17441 17443 28
13955 17441 17444 28
13956 17441 17445 28
13957 17446 17447 28
13958 17446 17448 28
13959 17446 17449 28
13960 17446 17450 28
13961 17451 17452 28
13962 17451 17453 28
13963 17451 17454 28
13964 17451 17455 28
13965 17456 17457 28
13966 17456 17458 28
13967 17456 17459 28
13968 17456 17460 28
13969 17461 17462 28
13970 17461 17463 28
13971 17461 17464 28
13972 17461 17465 28
13973 17466 17467 28
13974 17466 17468 28
13975 17466 17469 28
13976 17466 17470 28
13977 17471 17472 28
13978 17471 17473 28
13979 17471 17474 28
13980 17471 17475 28
13981 17476 17477 28
13982 17476 17478 28
13983 17476 17479 28
13984 17476 17480 28
13985 17481 17482 28
13986 17481 17483 28
13987 17481 17484 28
13988 17481 17485 28
13989 17486 17487 28
13990 17486 17488 28
13991 17486 17489 28
13992 17486 17490 28
13993 17491 17492 28
13994 17491 17493 28
13995 17491 17494 28
13996 17491 17495 28
13997 17496 17497 28
13998 17496 17498 28
13999 17496 17499 28
14000 17496 17500 28
14001 17501 17502 28
14002 17501 17503 28
14003 17501 17504 28
14004 17501 17505 28
14005 17506 17507 28
14006 17506 17508 28
14007 17506 17509 28
14008 17506 17510 28
14009 17511 17512 28
14010 17511 17513 28
14011 17511 17514 28
14012 17511 17515 28
14013 17516 17517 28
14014 17516 17518 28
14015 17516 17519 28
14016 17516 17520 28
14017 17521 17522 28
14018 17521 17523 28
14019 17521 17524 28
14020 17521 17525 28
14021 17526 17527 28
14022 17526 17528 28
14023 17526 17529 28
14024 17526 17530 28
14025 17531 17532 28
14026 17531 17533 28
14027 17531 17534 28
14028 17531 17535 28
14029 17536 17537 28
14030 17536 17538 28
14031 17536 17539 28
14032 17536 17540 28
14033 17541 17542 28
14034 17541 17543 28
14035 17541 17544 28
14036 17541 17545 28
14037 17546 17547 28
14038 17546 17548 28
14039 17546 17549 28
14040 17546 17550 28
14041 17551 17552 28
14042 17551 17553 28
14043 17551 17554 28
14044 17551 17555 28
14045 17556 17557 28
14046 17556 17558 28
14047 17556 17559 28
14048 17556 17560 28
14049 17561 17562 28
14050 17561 17563 28
14051 17561 17564 28
14052 17561 17565 28
14053 17566 17567 28
14054 17566 17568 28
14055 17566 17569 28
14056 17566 17570 28
14057 17571 17572 28
14058 17571 17573 28
14059 17571 17574 28
14060 17571 17575 28
14061 17576 17577 28
14062 17576 17578 28
14063 17576 17579 28
14064 17576 17580 28
14065 17581 17582 28
14066 17581 17583 28
14067 17581 17584 28
14068 17581 17585 28
14069 17586 17587 28
14070 17586 17588 28
14071 17586 17589 28
14072 17586 17590 28
14073 17591 17592 28
14074 17591 17593 28
14075 17591 17594 28
14076 17591 17595 28
14077 17596 17597 28
14078 17596 17598 28
14079 17596 17599 28
14080 17596 17600 28
14081 17601 17602 28
14082 17601 17603 28
14083 17601 17604 28
14084 17601 17605 28
14085 17606 17607 28
14086 17606 17608 28
14087 17606 17609 28
14088 17606 17610 28
14089 17611 17612 28
14090 17611 17613 28
14091 17611 17614 28
14092 17611 17615 28
14093 17616 17617 28
14094 17616 17618 28
14095 17616 17619 28
14096 17616 17620 28
14097 17621 17622 28
14098 17621 17623 28
14099 17621 17624 28
14100 17621 17625 28
14101 17626 17627 28
14102 17626 17628 28
14103 17626 17629 28
14104 17626 17630 28
14105 17631 17632 28
14106 17631 17633 28
14107 17631 17634 28
14108 17631 17635 28
14109 17636 17637 28
14110 17636 17638 28
14111 17636 17639 28
14112 17636 17640 28
14113 17641 17642 28
14114 17641 17643 28
14115 17641 17644 28
14116 17641 17645 28
14117 17646 17647 28
14118 17646 17648 28
14119 17646 17649 28
14120 17646 17650 28
14121 17651 17652 28
14122 17651 17653 28
14123 17651 17654 28
14124 17651 17655 28
14125 17656 17657 28
14126 17656 17658 28
14127 17656 17659 28
14128 17656 17660 28
14129 17661 17662 28
14130 17661 17663 28
14131 17661 17664 28
14132 17661 17665 28
14133 17666 17667 28
14134 17666 17668 28
14135 17666 17669 28
14136 17666 17670 28
14137 17671 17672 28
14138 17671 17673 28
14139 17671 17674 28
14140 17671 17675 28
14141 17676 17677 28
14142 17676 17678 28
14143 17676 17679 28
14144 17676 17680 28
14145 17681 17682 28
14146 17681 17683 28
14147 17681 17684 28
14148 17681 17685 28
14149 17686 17687 28
14150 17686 17688 28
14151 17686 17689 28
14152 17686 17690 28
14153 17691 17692 28
14154 17691 17693 28
14155 17691 17694 28
14156 17691 17695 28
14157 17696 17697 28
14158 17696 17698 28
14159 17696 17699 28
14160 17696 17700 28
14161 17701 17702 28
14162 17701 17703 28
14163 17701 17704 28
14164 17701 17705 28
14165 17706 17707 28
14166 17706 17708 28
14167 17706 17709 28
14168 17706 17710 28
14169 17711 17712 28
14170 17711 17713 28
14171 17711 17714 28
14172 17711 17715 28
14173 17716 17717 28
14174 17716 17718 28
14175 17716 17719 28
14176 17716 17720 28
14177 17721 17722 28
14178 17721 17723 28
14179 17721 17724 28
14180 17721 17725 28
14181 17726 17727 28
14182 17726 17728 28
14183 17726 17729 28
14184 17726 17730 28
14185 17731 17732 28
14186 17731 17733 28
14187 17731 17734 28
14188 17731 17735 28
14189 17736 17737 28
14190 17736 17738 28
14191 17736 17739 28
14192 17736 17740 28
14193 17741 17742 28
14194 17741 17743 28
14195 17741 17744 28
14196 17741 17745 28
14197 17746 17747 28
14198 17746 17748 28
14199 17746 17749 28
14200 17746 17750 28
14201 17751 17752 28
14202 17751 17753 28
14203 17751 17754 28
14204 17751 17755 28
14205 17756 17757 28
14206 17756 17758 28
14207 17756 17759 28
14208 17756 17760 28
14209 17761 17762 28
14210 17761 17763 28
14211 17761 17764 28
14212 17761 17765 28
14213 17766 17767 28
14214 17766 17768 28
14215 17766 17769 28
14216 17766 17770 28
14217 17771 17772 28
14218 17771 17773 28
14219 17771 17774 28
14220 17771 17775 28
14221 17776 17777 28
14222 17776 17778 28
14223 17776 17779 28
14224 17776 17780 28
14225 17781 17782 28
14226 17781 17783 28
14227 17781 17784 28
14228 17781 17785 28
14229 17786 17787 28
14230 17786 17788 28
14231 17786 17789 28
14232 17786 17790 28
14233 17791 17792 28
14234 17791 17793 28
14235 17791 17794 28
14236 17791 17795 28
14237 17796 17797 28
14238 17796 17798 28
14239 17796 17799 28
14240 17796 17800 28
14241 17801 17802 28
14242 17801 17803 28
14243 17801 17804 28
14244 17801 17805 28
14245 17806 17807 28
14246 17806 17808 28
14247 17806 17809 28
14248 17806 17810 28
14249 17811 17812 28
14250 17811 17813 28
14251 17811 17814 28
14252 17811 17815 28
14253 17816 17817 28
14254 17816 17818 28
14255 17816 17819 28
14256 17816 17820 28
14257 17821 17822 28
14258 17821 17823 28
14259 17821 17824 28
14260 17821 17825 28
14261 17826 17827 28
14262 17826 17828 28
14263 17826 17829 28
14264 17826 17830 28
14265 17831 17832 28
14266 17831 17833 28
14267 17831 17834 28
14268 17831 17835 28
14269 17836 17837 28
14270 17836 17838 28
14271 17836 17839 28
14272 17836 17840 28
14273 17841 17842 28
14274 17841 17843 28
14275 17841 17844 28
14276 17841 17845 28
14277 17846 17847 28
14278 17846 17848 28
14279 17846 17849 28
14280 17846 17850 28
14281 17851 17852 28
14282 17851 17853 28
14283 17851 17854 28
14284 17851 17855 28
14285 17856 17857 28
14286 17856 17858 28
14287 17856 17859 28
14288 17856 17860 28
14289 17861 17862 28
14290 17861 17863 28
14291 17861 17864 28
14292 17861 17865 28
14293 17866 17867 28
14294 17866 17868 28
14295 17866 17869 28
14296 17866 17870 28
14297 17871 17872 28
14298 17871 17873 28
14299 17871 17874 28
14300 17871 17875 28
14301 17876 17877 28
14302 17876 17878 28
14303 17876 17879 28
14304 17876 17880 28
14305 17881 17882 28
14306 17881 17883 28
14307 17881 17884 28
14308 17881 17885 28
14309 17886 17887 28
14310 17886 17888 28
14311 17886 17889 28
14312 17886 17890 28
14313 17891 17892 28
14314 17891 17893 28
14315 17891 17894 28
14316 17891 17895 28
14317 17896 17897 28
14318 17896 17898 28
14319 17896 17899 28
14320 17896 17900 28
14321 17901 17902 28
14322 17901 17903 28
14323 17901 17904 28
14324 17901 17905 28
14325 17906 17907 28
14326 17906 17908 28
14327 17906 17909 28
14328 17906 17910 28
14329 17911 17912 28
14330 17911 17913 28
14331 17911 17914 28
14332 17911 17915 28
14333 17916 17917 28
14334 17916 17918 28
14335 17916 17919 28
14336 17916 17920 28
14337 17921 17922 28
14338 17921 17923 28
14339 17921 17924 28
14340 17921 17925 28
14341 17926 17927 28
14342 17926 17928 28
14343 17926 17929 28
14344 17926 17930 28
14345 17931 17932 28
14346 17931 17933 28
14347 17931 17934 28
14348 17931 17935 28
14349 17936 17937 28
14350 17936 17938 28
14351 17936 17939 28
14352 17936 17940 28
14353 17941 17942 28
14354 17941 17943 28
14355 17941 17944 28
14356 17941 17945 28
14357 17946 17947 28
14358 17946 17948 28
14359 17946 17949 28
14360 17946 17950 28
14361 17951 17952 28
14362 17951 17953 28
14363 17951 17954 28
14364 17951 17955 28
14365 17956 17957 28
14366 17956 17958 28
14367 17956 17959 28
14368 17956 17960 28
14369 17961 17962 28
14370 17961 17963 28
14371 17961 17964 28
14372 17961 17965 28
14373 17966 17967 28
14374 17966 17968 28
14375 17966 17969 28
14376 17966 17970 28
14377 17971 17972 28
14378 17971 17973 28
14379 17971 17974 28
14380 17971 17975 28
14381 17976 17977 28
14382 17976 17978 28
14383 17976 17979 28
14384 17976 17980 28
14385 17981 17982 28
14386 17981 17983 28
14387 17981 17984 28
14388 17981 17985 28
14389 17986 17987 28
14390 17986 17988 28
14391 17986 17989 28
14392 17986 17990 28
14393 17991 17992 28
14394 17991 17993 28
14395 17991 17994 28
14396 17991 17995 28
14397 17996 17997 28
14398 17996 17998 28
14399 17996 17999 28
14400 17996 18000 28
14401 18001 18002 28
14402 18001 18003 28
14403 18001 18004 28
14404 18001 18005 28
14405 18006 18007 28
14406 18006 18008 28
14407 18006 18009 28
14408 18006 18010 28
14409 18011 18012 28
14410 18011 18013 28
14411 18011 18014 28
14412 18011 18015 28
14413 18016 18017 28
14414 18016 18018 28
14415 18016 18019 28
14416 18016 18020 28
14417 18021 18022 28
14418 18021 18023 28
14419 18021 18024 28
14420 18021 18025 28
14421 18026 18027 28
14422 18026 18028 28
14423 18026 18029 28
14424 18026 18030 28
14425 18031 18032 28
14426 18031 18033 28
14427 18031 18034 28
14428 18031 18035 28
14429 18036 18037 28
14430 18036 18038 28
14431 18036 18039 28
14432 18036 18040 28
14433 18041 18042 28
14434 18041 18043 28
14435 18041 18044 28
14436 18041 18045 28
14437 18046 18047 28
14438 18046 18048 28
14439 18046 18049 28
14440 18046 18050 28
14441 18051 18052 28
14442 18051 18053 28
14443 18051 18054 28
14444 18051 18055 28
14445 18056 18057 28
14446 18056 18058 28
14447 18056 18059 28
14448 18056 18060 28
14449 18061 18062 28
14450 18061 18063 28
14451 18061 18064 28
14452 18061 18065 28
14453 18066 18067 28
14454 18066 18068 28
14455 18066 18069 28
14456 18066 18070 28
14457 18071 18072 28
14458 18071 18073 28
14459 18071 18074 28
14460 18071 18075 28
14461 18076 18077 28
14462 18076 18078 28
14463 18076 18079 28
14464 18076 18080 28
14465 18081 18082 28
14466 18081 18083 28
14467 18081 18084 28
14468 18081 18085 28
14469 18086 18087 28
14470 18086 18088 28
14471 18086 18089 28
14472 18086 18090 28
14473 18091 18092 28
14474 18091 18093 28
14475 18091 18094 28
14476 18091 18095 28
14477 18096 18097 28
14478 18096 18098 28
14479 18096 18099 28
14480 18096 18100 28
14481 18101 18102 28
14482 18101 18103 28
14483 18101 18104 28
14484 18101 18105 28
14485 18106 18107 28
14486 18106 18108 28
14487 18106 18109 28
14488 18106 18110 28
14489 18111 18112 28
14490 18111 18113 28
14491 18111 18114 28
14492 18111 18115 28
14493 18116 18117 28
14494 18116 18118 28
14495 18116 18119 28
14496 18116 18120 28
14497 18121 18122 28
14498 18121 18123 28
14499 18121 18124 28
14500 18121 18125 28
14501 18126 18127 28
14502 18126 18128 28
14503 18126 18129 28
14504 18126 18130 28
14505 18131 18132 28
14506 18131 18133 28
14507 18131 18134 28
14508 18131 18135 28
14509 18136 18137 28
14510 18136 18138 28
14511 18136 18139 28
14512 18136 18140 28
14513 18141 18142 28
14514 18141 18143 28
14515 18141 18144 28
14516 18141 18145 28
14517 18146 18147 28
14518 18146 18148 28
14519 18146 18149 28
14520 18146 18150 28
14521 18151 18152 28
14522 18151 18153 28
14523 18151 18154 28
14524 18151 18155 28
14525 18156 18157 28
14526 18156 18158 28
14527 18156 18159 28
14528 18156 18160 28
14529 18161 18162 28
14530 18161 18163 28
14531 18161 18164 28
14532 18161 18165 28
14533 18166 18167 28
14534 18166 18168 28
14535 18166 18169 28
14536 18166 18170 28
14537 18171 18172 28
14538 18171 18173 28
14539 18171 18174 28
14540 18171 18175 28
14541 18176 18177 28
14542 18176 18178 28
14543 18176 18179 28
14544 18176 18180 28
14545 18181 18182 28
14546 18181 18183 28
14547 18181 18184 28
14548 18181 18185 28
14549 18186 18187 28
14550 18186 18188 28
14551 18186 18189 28
14552 18186 18190 28
14553 18191 18192 28
14554 18191 18193 28
14555 18191 18194 28
14556 18191 18195 28
14557 18196 18197 28
14558 18196 18198 28
14559 18196 18199 28
14560 18196 18200 28
14561 18201 18202 28
14562 18201 18203 28
14563 18201 18204 28
14564 18201 18205 28
14565 18206 18207 28
14566 18206 18208 28
14567 18206 18209 28
14568 18206 18210 28
14569 18211 18212 28
14570 18211 18213 28
14571 18211 18214 28
14572 18211 18215 28
14573 18216 18217 28
14574 18216 18218 28
14575 18216 18219 28
14576 18216 18220 28
14577 18221 18222 28
14578 18221 18223 28
14579 18221 18224 28
14580 18221 18225 28
14581 18226 18227 28
14582 18226 18228 28
14583 18226 18229 28
14584 18226 18230 28
14585 18231 18232 28
14586 18231 18233 28
14587 18231 18234 28
14588 18231 18235 28
14589 18236 18237 28
14590 18236 18238 28
14591 18236 18239 28
14592 18236 18240 28
14593 18241 18242 28
14594 18241 18243 28
14595 18241 18244 28
14596 18241 18245 28
14597 18246 18247 28
14598 18246 18248 28
14599 18246 18249 28
14600 18246 18250 28
14601 18251 18252 28
14602 18251 18253 28
14603 18251 18254 28
14604 18251 18255 28
14605 18256 18257 28
14606 18256 18258 28
14607 18256 18259 28
14608 18256 18260 28
14609 18261 18262 28
14610 18261 18263 28
14611 18261 18264 28
14612 18261 18265 28
14613 18266 18267 28
14614 18266 18268 28
14615 18266 18269 28
14616 18266 18270 28
14617 18271 18272 28
14618 18271 18273 28
14619 18271 18274 28
14620 18271 18275 28
14621 18276 18277 28
14622 18276 18278 28
14623 18276 18279 28
14624 18276 18280 28
14625 18281 18282 28
14626 18281 18283 28
14627 18281 18284 28
14628 18281 18285 28
14629 18286 18287 28
14630 18286 18288 28
14631 18286 18289 28
14632 18286 18290 28
14633 18291 18292 28
14634 18291 18293 28
14635 18291 18294 28
14636 18291 18295 28
14637 18296 18297 28
14638 18296 18298 28
14639 18296 18299 28
14640 18296 18300 28
14641 18301 18302 28
14642 18301 18303 28
14643 18301 18304 28
14644 18301 18305 28
14645 18306 18307 28
14646 18306 18308 28
14647 18306 18309 28
14648 18306 18310 28
14649 18311 18312 28
14650 18311 18313 28
14651 18311 18314 28
14652 18311 18315 28
14653 18316 18317 28
14654 18316 18318 28
14655 18316 18319 28
14656 18316 18320 28
14657 18321 18322 28
14658 18321 18323 28
14659 18321 18324 28
14660 18321 18325 28
14661 18326 18327 28
14662 18326 18328 28
14663 18326 18329 28
14664 18326 18330 28
14665 18331 18332 28
14666 18331 18333 28
14667 18331 18334 28
14668 18331 18335 28
14669 18336 18337 28
14670 18336 18338 28
14671 18336 18339 28
14672 18336 18340 28
14673 18341 18342 28
14674 18341 18343 28
14675 18341 18344 28
14676 18341 18345 28
14677 18346 18347 28
14678 18346 18348 28
14679 18346 18349 28
14680 18346 18350 28
14681 18351 18352 28
14682 18351 18353 28
14683 18351 18354 28
14684 18351 18355 28
14685 18356 18357 28
14686 18356 18358 28
14687 18356 18359 28
14688 18356 18360 28
14689 18361 18362 28
14690 18361 18363 28
14691 18361 18364 28
14692 18361 18365 28
14693 18366 18367 28
14694 18366 18368 28
14695 18366 18369 28
14696 18366 18370 28
14697 18371 18372 28
14698 18371 18373 28
14699 18371 18374 28
14700 18371 18375 28
14701 18376 18377 28
14702 18376 18378 28
14703 18376 18379 28
14704 18376 18380 28
14705 18381 18382 28
14706 18381 18383 28
14707 18381 18384 28
14708 18381 18385 28
14709 18386 18387 28
14710 18386 18388 28
14711 18386 18389 28
14712 18386 18390 28
14713 18391 18392 28
14714 18391 18393 28
14715 18391 18394 28
14716 18391 18395 28
14717 18396 18397 28
14718 18396 18398 28
14719 18396 18399 28
14720 18396 18400 28
14721 18401 18402 28
14722 18401 18403 28
14723 18401 18404 28
14724 18401 18405 28
14725 18406 18407 28
14726 18406 18408 28
14727 18406 18409 28
14728 18406 18410 28
14729 18411 18412 28
14730 18411 18413 28
14731 18411 18414 28
14732 18411 18415 28
14733 18416 18417 28
14734 18416 18418 28
14735 18416 18419 28
14736 18416 18420 28
14737 18421 18422 28
14738 18421 18423 28
14739 18421 18424 28
14740 18421 18425 28
14741 18426 18427 28
14742 18426 18428 28
14743 18426 18429 28
14744 18426 18430 28
14745 18431 18432 28
14746 18431 18433 28
14747 18431 18434 28
14748 18431 18435 28
14749 18436 18437 28
14750 18436 18438 28
14751 18436 18439 28
14752 18436 18440 28
14753 18441 18442 28
14754 18441 18443 28
14755 18441 18444 28
14756 18441 18445 28
14757 18446 18447 28
14758 18446 18448 28
14759 18446 18449 28
14760 18446 18450 28
14761 18451 18452 28
14762 18451 18453 28
14763 18451 18454 28
14764 18451 18455 28
14765 18456 18457 28
14766 18456 18458 28
14767 18456 18459 28
14768 18456 18460 28
14769 18461 18462 28
14770 18461 18463 28
14771 18461 18464 28
14772 18461 18465 28
14773 18466 18467 28
14774 18466 18468 28
14775 18466 18469 28
14776 18466 18470 28
14777 18471 18472 28
14778 18471 18473 28
14779 18471 18474 28
14780 18471 18475 28
14781 18476 18477 28
14782 18476 18478 28
14783 18476 18479 28
14784 18476 18480 28
14785 18481 18482 28
14786 18481 18483 28
14787 18481 18484 28
14788 18481 18485 28
14789 18486 18487 28
14790 18486 18488 28
14791 18486 18489 28
14792 18486 18490 28
14793 18491 18492 28
14794 18491 18493 28
14795 18491 18494 28
14796 18491 18495 28
14797 18496 18497 28
14798 18496 18498 28
14799 18496 18499 28
14800 18496 18500 28
14801 18501 18502 28
14802 18501 18503 28
14803 18501 18504 28
14804 18501 18505 28
14805 18506 18507 28
14806 18506 18508 28
14807 18506 18509 28
14808 18506 18510 28
14809 18511 18512 28
14810 18511 18513 28
14811 18511 18514 28
14812 18511 18515 28
14813 18516 18517 28
14814 18516 18518 28
14815 18516 18519 28
14816 18516 18520 28
14817 18521 18522 28
14818 18521 18523 28
14819 18521 18524 28
14820 18521 18525 28
14821 18526 18527 28
14822 18526 18528 28
14823 18526 18529 28
14824 18526 18530 28
14825 18531 18532 28
14826 18531 18533 28
14827 18531 18534 28
14828 18531 18535 28
14829 18536 18537 28
14830 18536 18538 28
14831 18536 18539 28
14832 18536 18540 28
14833 18541 18542 28
14834 18541 18543 28
14835 18541 18544 28
14836 18541 18545 28
14837 18546 18547 28
14838 18546 18548 28
14839 18546 18549 28
14840 18546 18550 28
14841 18551 18552 28
14842 18551 18553 28
14843 18551 18554 28
14844 18551 18555 28
14845 18556 18557 28
14846 18556 18558 28
14847 18556 18559 28
14848 18556 18560 28
14849 18561 18562 28
14850 18561 18563 28
14851 18561 18564 28
14852 18561 18565 28
14853 18566 18567 28
14854 18566 18568 28
14855 18566 18569 28
14856 18566 18570 28
14857 18571 18572 28
14858 18571 18573 28
14859 18571 18574 28
14860 18571 18575 28
14861 18576 18577 28
14862 18576 18578 28
14863 18576 18579 28
14864 18576 18580 28
14865 18581 18582 28
14866 18581 18583 28
14867 18581 18584 28
14868 18581 18585 28
14869 18586 18587 28
14870 18586 18588 28
14871 18586 18589 28
14872 18586 18590 28
14873 18591 18592 28
14874 18591 18593 28
14875 18591 18594 28
14876 18591 18595 28
14877 18596 18597 28
14878 18596 18598 28
14879 18596 18599 28
14880 18596 18600 28
14881 18601 18602 28
14882 18601 18603 28
14883 18601 18604 28
14884 18601 18605 28
14885 18606 18607 28
14886 18606 18608 28
14887 18606 18609 28
14888 18606 18610 28
14889 18611 18612 28
14890 18611 18613 28
14891 18611 18614 28
14892 18611 18615 28
14893 18616 18617 28
14894 18616 18618 28
14895 18616 18619 28
14896 18616 18620 28
14897 18621 18622 28
14898 18621 18623 28
14899 18621 18624 28
14900 18621 18625 28
14901 18626 18627 28
14902 18626 18628 28
14903 18626 18629 28
14904 18626 18630 28
14905 18631 18632 28
14906 18631 18633 28
14907 18631 18634 28
14908 18631 18635 28
14909 18636 18637 28
14910 18636 18638 28
14911 18636 18639 28
14912 18636 18640 28
14913 18641 18642 28
14914 18641 18643 28
14915 18641 18644 28
14916 18641 18645 28
14917 18646 18647 28
14918 18646 18648 28
14919 18646 18649 28
14920 18646 18650 28
14921 18651 18652 28
14922 18651 18653 28
14923 18651 18654 28
14924 18651 18655 28
14925 18656 18657 28
14926 18656 18658 28
14927 18656 18659 28
14928 18656 18660 28
14929 18661 18662 28
14930 18661 18663 28
14931 18661 18664 28
14932 18661 18665 28
14933 18666 18667 28
14934 18666 18668 28
14935 18666 18669 28
14936 18666 18670 28
14937 18671 18672 28
14938 18671 18673 28
14939 18671 18674 28
14940 18671 18675 28
14941 18676 18677 28
14942 18676 18678 28
14943 18676 18679 28
14944 18676 18680 28
14945 18681 18682 28
14946 18681 18683 28
14947 18681 18684 28
14948 18681 18685 28
14949 18686 18687 28
14950 18686 18688 28
14951 18686 18689 28
14952 18686 18690 28
14953 18691 18692 28
14954 18691 18693 28
14955 18691 18694 28
14956 18691 18695 28
14957 18696 18697 28
14958 18696 18698 28
14959 18696 18699 28
14960 18696 18700 28
14961 18701 18702 28
14962 18701 18703 28
14963 18701 18704 28
14964 18701 18705 28
14965 18706 18707 28
14966 18706 18708 28
14967 18706 18709 28
14968 18706 18710 28
14969 18711 18712 28
14970 18711 18713 28
14971 18711 18714 28
14972 18711 18715 28
14973 18716 18717 28
14974 18716 18718 28
14975 18716 18719 28
14976 18716 18720 28
14977 18721 18722 28
14978 18721 18723 28
14979 18721 18724 28
14980 18721 18725 28
14981 18726 18727 28
14982 18726 18728 28
14983 18726 18729 28
14984 18726 18730 28
14985 18731 18732 28
14986 18731 18733 28
14987 18731 18734 28
14988 18731 18735 28
14989 18736 18737 28
14990 18736 18738 28
14991 18736 18739 28
14992 18736 18740 28
14993 18741 18742 28
14994 18741 18743 28
14995 18741 18744 28
14996 18741 18745 28
14997 18746 18747 28
14998 18746 18748 28
14999 18746 18749 28
15000 18746 18750 28
15001 18751 18752 28
15002 18751 18753 28
15003 18751 18754 28
15004 18751 18755 28
15005 18756 18757 28
15006 18756 18758 28
15007 18756 18759 28
15008 18756 18760 28
15009 18761 18762 28
15010 18761 18763 28
15011 18761 18764 28
15012 18761 18765 28
15013 18766 18767 28
15014 18766 18768 28
15015 18766 18769 28
15016 18766 18770 28
15017 18771 18772 28
15018 18771 18773 28
15019 18771 18774 28
15020 18771 18775 28
15021 18776 18777 28
15022 18776 18778 28
15023 18776 18779 28
15024 18776 18780 28
15025 18781 18782 28
15026 18781 18783 28
15027 18781 18784 28
15028 18781 18785 28
15029 18786 18787 28
15030 18786 18788 28
15031 18786 18789 28
15032 18786 18790 28
15033 18791 18792 28
15034 18791 18793 28
15035 18791 18794 28
15036 18791 18795 28
15037 18796 18797 28
15038 18796 18798 28
15039 18796 18799 28
15040 18796 18800 28
15041 18801 18802 28
15042 18801 18803 28
15043 18801 18804 28
15044 18801 18805 28
15045 18806 18807 28
15046 18806 18808 28
15047 18806 18809 28
15048 18806 18810 28
15049 18811 18812 28
15050 18811 18813 28
15051 18811 18814 28
15052 18811 18815 28
15053 18816 18817 28
15054 18816 18818 28
15055 18816 18819 28
15056 18816 18820 28
15057 18821 18822 28
15058 18821 18823 28
15059 18821 18824 28
15060 18821 18825 28
15061 18826 18827 28
15062 18826 18828 28
15063 18826 18829 28
15064 18826 18830 28
15065 18831 18832 28
15066 18831 18833 28
15067 18831 18834 28
15068 18831 18835 28
15069 18836 18837 28
15070 18836 18838 28
15071 18836 18839 28
15072 18836 18840 28
15073 18841 18842 28
15074 18841 18843 28
15075 18841 18844 28
15076 18841 18845 28
15077 18846 18847 28
15078 18846 18848 28
15079 18846 18849 28
15080 18846 18850 28
15081 18851 18852 28
15082 18851 18853 28
15083 18851 18854 28
15084 18851 18855 28
15085 18856 18857 28
15086 18856 18858 28
15087 18856 18859 28
15088 18856 18860 28
15089 18861 18862 28
15090 18861 18863 28
15091 18861 18864 28
15092 18861 18865 28
15093 18866 18867 28
15094 18866 18868 28
15095 18866 18869 28
15096 18866 18870 28
15097 18871 18872 28
15098 18871 18873 28
15099 18871 18874 28
15100 18871 18875 28
15101 18876 18877 28
15102 18876 18878 28
15103 18876 18879 28
15104 18876 18880 28
15105 18881 18882 28
15106 18881 18883 28
15107 18881 18884 28
15108 18881 18885 28
15109 18886 18887 28
15110 18886 18888 28
15111 18886 18889 28
15112 18886 18890 28
15113 18891 18892 28
15114 18891 18893 28
15115 18891 18894 28
15116 18891 18895 28
15117 18896 18897 28
15118 18896 18898 28
15119 18896 18899 28
15120 18896 18900 28
15121 18901 18902 28
15122 18901 18903 28
15123 18901 18904 28
15124 18901 18905 28
15125 18906 18907 28
15126 18906 18908 28
15127 18906 18909 28
15128 18906 18910 28
15129 18911 18912 28
15130 18911 18913 28
15131 18911 18914 28
15132 18911 18915 28
15133 18916 18917 28
15134 18916 18918 28
15135 18916 18919 28
15136 18916 18920 28
15137 18921 18922 28
15138 18921 18923 28
15139 18921 18924 28
15140 18921 18925 28
15141 18926 18927 28
15142 18926 18928 28
15143 18926 18929 28
15144 18926 18930 28
15145 18931 18932 28
15146 18931 18933 28
15147 18931 18934 28
15148 18931 18935 28
15149 18936 18937 28
15150 18936 18938 28
15151 18936 18939 28
15152 18936 18940 28
15153 18941 18942 28
15154 18941 18943 28
15155 18941 18944 28
15156 18941 18945 28
15157 18946 18947 28
15158 18946 18948 28
15159 18946 18949 28
15160 18946 18950 28
15161 18951 18952 28
15162 18951 18953 28
15163 18951 18954 28
15164 18951 18955 28
15165 18956 18957 28
15166 18956 18958 28
15167 18956 18959 28
15168 18956 18960 28
15169 18961 18962 28
15170 18961 18963 28
15171 18961 18964 28
15172 18961 18965 28
15173 18966 18967 28
15174 18966 18968 28
15175 18966 18969 28
15176 18966 18970 28
15177 18971 18972 28
15178 18971 18973 28
15179 18971 18974 28
15180 18971 18975 28
15181 18976 18977 28
15182 18976 18978 28
15183 18976 18979 28
15184 18976 18980 28
15185 18981 18982 28
15186 18981 18983 28
15187 18981 18984 28
15188 18981 18985 28
15189 18986 18987 28
15190 18986 18988 28
15191 18986 18989 28
15192 18986 18990 28
15193 18991 18992 28
15194 18991 18993 28
15195 18991 18994 28
15196 18991 18995 28
15197 18996 18997 28
15198 18996 18998 28
15199 18996 18999 28
15200 18996 19000 28
15201 19001 19002 28
15202 19001 19003 28
15203 19001 19004 28
15204 19001 19005 28
15205 19006 19007 28
15206 19006 19008 28
15207 19006 19009 28
15208 19006 19010 28
15209 19011 19012 28
15210 19011 19013 28
15211 19011 19014 28
15212 19011 19015 28
15213 19016 19017 28
15214 19016 19018 28
15215 19016 19019 28
15216 19016 19020 28
15217 19021 19022 28
15218 19021 19023 28
15219 19021 19024 28
15220 19021 19025 28
15221 19026 19027 28
15222 19026 19028 28
15223 19026 19029 28
15224 19026 19030 28
15225 19031 19032 28
15226 19031 19033 28
15227 19031 19034 28
15228 19031 19035 28
15229 19036 19037 28
15230 19036 19038 28
15231 19036 19039 28
15232 19036 19040 28
15233 19041 19042 28
15234 19041 19043 28
15235 19041 19044 28
15236 19041 19045 28
15237 19046 19047 28
15238 19046 19048 28
15239 19046 19049 28
15240 19046 19050 28
15241 19051 19052 28
15242 19051 19053 28
15243 19051 19054 28
15244 19051 19055 28
15245 19056 19057 28
15246 19056 19058 28
15247 19056 19059 28
15248 19056 19060 28
15249 19061 19062 28
15250 19061 19063 28
15251 19061 19064 28
15252 19061 19065 28
15253 19066 19067 28
15254 19066 19068 28
15255 19066 19069 28
15256 19066 19070 28
15257 19071 19072 28
15258 19071 19073 28
15259 19071 19074 28
15260 19071 19075 28
15261 19076 19077 28
15262 19076 19078 28
15263 19076 19079 28
15264 19076 19080 28
15265 19081 19082 28
15266 19081 19083 28
15267 19081 19084 28
15268 19081 19085 28
15269 19086 19087 28
15270 19086 19088 28
15271 19086 19089 28
15272 19086 19090 28
15273 19091 19092 28
15274 19091 19093 28
15275 19091 19094 28
15276 19091 19095 28
15277 19096 19097 28
15278 19096 19098 28
15279 19096 19099 28
15280 19096 19100 28
15281 19101 19102 28
15282 19101 19103 28
15283 19101 19104 28
15284 19101 19105 28
15285 19106 19107 28
15286 19106 19108 28
15287 19106 19109 28
15288 19106 19110 28
15289 19111 19112 28
15290 19111 19113 28
15291 19111 19114 28
15292 19111 19115 28
15293 19116 19117 28
15294 19116 19118 28
15295 19116 19119 28
15296 19116 19120 28
15297 19121 19122 28
15298 19121 19123 28
15299 19121 19124 28
15300 19121 19125 28
15301 19126 19127 28
15302 19126 19128 28
15303 19126 19129 28
15304 19126 19130 28
15305 19131 19132 28
15306 19131 19133 28
15307 19131 19134 28
15308 19131 19135 28
15309 19136 19137 28
15310 19136 19138 28
15311 19136 19139 28
15312 19136 19140 28
15313 19141 19142 28
15314 19141 19143 28
15315 19141 19144 28
15316 19141 19145 28
15317 19146 19147 28
15318 19146 19148 28
15319 19146 19149 28
15320 19146 19150 28
15321 19151 19152 28
15322 19151 19153 28
15323 19151 19154 28
15324 19151 19155 28
15325 19156 19157 28
15326 19156 19158 28
15327 19156 19159 28
15328 19156 19160 28
15329 19161 19162 28
15330 19161 19163 28
15331 19161 19164 28
15332 19161 19165 28
15333 19166 19167 28
15334 19166 19168 28
15335 19166 19169 28
15336 19166 19170 28
15337 19171 19172 28
15338 19171 19173 28
15339 19171 19174 28
15340 19171 19175 28
15341 19176 19177 28
15342 19176 19178 28
15343 19176 19179 28
15344 19176 19180 28
15345 19181 19182 28
15346 19181 19183 28
15347 19181 19184 28
15348 19181 19185 28
15349 19186 19187 28
15350 19186 19188 28
15351 19186 19189 28
15352 19186 19190 28
15353 19191 19192 28
15354 19191 19193 28
15355 19191 19194 28
15356 19191 19195 28
15357 19196 19197 28
15358 19196 19198 28
15359 19196 19199 28
15360 19196 19200 28
15361 19201 19202 28
15362 19201 19203 28
15363 19201 19204 28
15364 19201 19205 28
15365 19206 19207 28
15366 19206 19208 28
15367 19206 19209 28
15368 19206 19210 28
15369 19211 19212 28
15370 19211 19213 28
15371 19211 19214 28
15372 19211 19215 28
15373 19216 19217 28
15374 19216 19218 28
15375 19216 19219 28
15376 19216 19220 28
15377 19221 19222 28
15378 19221 19223 28
15379 19221 19224 28
15380 19221 19225 28
15381 19226 19227 28
15382 19226 19228 28
15383 19226 19229 28
15384 19226 19230 28
15385 19231 19232 28
15386 19231 19233 28
15387 19231 19234 28
15388 19231 19235 28
15389 19236 19237 28
15390 19236 19238 28
15391 19236 19239 28
15392 19236 19240 28
15393 19241 19242 28
15394 19241 19243 28
15395 19241 19244 28
15396 19241 19245 28
15397 19246 19247 28
15398 19246 19248 28
15399 19246 19249 28
15400 19246 19250 28
15401 19251 19252 28
15402 19251 19253 28
15403 19251 19254 28
15404 19251 19255 28
15405 19256 19257 28
15406 19256 19258 28
15407 19256 19259 28
15408 19256 19260 28
15409 19261 19262 28
15410 19261 19263 28
15411 19261 19264 28
15412 19261 19265 28
15413 19266 19267 28
15414 19266 19268 28
15415 19266 19269 28
15416 19266 19270 28
15417 19271 19272 28
15418 19271 19273 28
15419 19271 19274 28
15420 19271 19275 28
15421 19276 19277 28
15422 19276 19278 28
15423 19276 19279 28
15424 19276 19280 28
15425 19281 19282 28
15426 19281 19283 28
15427 19281 19284 28
15428 19281 19285 28
15429 19286 19287 28
15430 19286 19288 28
15431 19286 19289 28
15432 19286 19290 28
15433 19291 19292 28
15434 19291 19293 28
15435 19291 19294 28
15436 19291 19295 28
15437 19296 19297 28
15438 19296 19298 28
15439 19296 19299 28
15440 19296 19300 28
15441 19301 19302 28
15442 19301 19303 28
15443 19301 19304 28
15444 19301 19305 28
15445 19306 19307 28
15446 19306 19308 28
15447 19306 19309 28
15448 19306 19310 28
15449 19311 19312 28
15450 19311 19313 28
15451 19311 19314 28
15452 19311 19315 28
15453 19316 19317 28
15454 19316 19318 28
15455 19316 19319 28
15456 19316 19320 28
15457 19321 19322 28
15458 19321 19323 28
15459 19321 19324 28
15460 19321 19325 28
15461 19326 19327 28
15462 19326 19328 28
15463 19326 19329 28
15464 19326 19330 28
15465 19331 19332 28
15466 19331 19333 28
15467 19331 19334 28
15468 19331 19335 28
15469 19336 19337 28
15470 19336 19338 28
15471 19336 19339 28
15472 19336 19340 28
15473 19341 19342 28
15474 19341 19343 28
15475 19341 19344 28
15476 19341 19345 28
15477 19346 19347 28
15478 19346 19348 28
15479 19346 19349 28
15480 19346 19350 28
15481 19351 19352 28
15482 19351 19353 28
15483 19351 19354 28
15484 19351 19355 28
15485 19356 19357 28
15486 19356 19358 28
15487 19356 19359 28
15488 19356 19360 28
15489 19361 19362 28
15490 19361 19363 28
15491 19361 19364 28
15492 19361 19365 28
15493 19366 19367 28
15494 19366 19368 28
15495 19366 19369 28
15496 19366 19370 28
15497 19371 19372 28
15498 19371 19373 28
15499 19371 19374 28
15500 19371 19375 28
15501 19376 19377 28
15502 19376 19378 28
15503 19376 19379 28
15504 19376 19380 28
15505 19381 19382 28
15506 19381 19383 28
15507 19381 19384 28
15508 19381 19385 28
15509 19386 19387 28
15510 19386 19388 28
15511 19386 19389 28
15512 19386 19390 28
15513 19391 19392 28
15514 19391 19393 28
15515 19391 19394 28
15516 19391 19395 28
15517 19396 19397 28
15518 19396 19398 28
15519 19396 19399 28
15520 19396 19400 28
15521 19401 19402 28
15522 19401 19403 28
15523 19401 19404 28
15524 19401 19405 28
15525 19406 19407 28
15526 19406 19408 28
15527 19406 19409 28
15528 19406 19410 28
15529 19411 19412 28
15530 19411 19413 28
15531 19411 19414 28
15532 19411 19415 28
15533 19416 19417 28
15534 19416 19418 28
15535 19416 19419 28
15536 19416 19420 28
15537 19421 19422 28
15538 19421 19423 28
15539 19421 19424 28
15540 19421 19425 28
15541 19426 19427 28
15542 19426 19428 28
15543 19426 19429 28
15544 19426 19430 28
15545 19431 19432 28
15546 19431 19433 28
15547 19431 19434 28
15548 19431 19435 28
15549 19436 19437 28
15550 19436 19438 28
15551 19436 19439 28
15552 19436 19440 28
15553 19441 19442 28
15554 19441 19443 28
15555 19441 19444 28
15556 19441 19445 28
15557 19446 19447 28
15558 19446 19448 28
15559 19446 19449 28
15560 19446 19450 28
15561 19451 19452 28
15562 19451 19453 28
15563 19451 19454 28
15564 19451 19455 28
15565 19456 19457 28
15566 19456 19458 28
15567 19456 19459 28
15568 19456 19460 28
15569 19461 19462 28
15570 19461 19463 28
15571 19461 19464 28
15572 19461 19465 28
15573 19466 19467 28
15574 19466 19468 28
15575 19466 19469 28
15576 19466 19470 28
15577 19471 19472 28
15578 19471 19473 28
15579 19471 19474 28
15580 19471 19475 28
15581 19476 19477 28
15582 19476 19478 28
15583 19476 19479 28
15584 19476 19480 28
15585 19481 19482 28
15586 19481 19483 28
15587 19481 19484 28
15588 19481 19485 28
15589 19486 19487 28
15590 19486 19488 28
15591 19486 19489 28
15592 19486 19490 28
15593 19491 19492 28
15594 19491 19493 28
15595 19491 19494 28
15596 19491 19495 28
15597 19496 19497 28
15598 19496 19498 28
15599 19496 19499 28
15600 19496 19500 28
15601 19501 19502 28
15602 19501 19503 28
15603 19501 19504 28
15604 19501 19505 28
15605 19506 19507 28
15606 19506 19508 28
15607 19506 19509 28
15608 19506 19510 28
15609 19511 19512 28
15610 19511 19513 28
15611 19511 19514 28
15612 19511 19515 28
15613 19516 19517 28
15614 19516 19518 28
15615 19516 19519 28
15616 19516 19520 28
15617 19521 19522 28
15618 19521 19523 28
15619 19521 19524 28
15620 19521 19525 28
15621 19526 19527 28
15622 19526 19528 28
15623 19526 19529 28
15624 19526 19530 28
15625 19531 19532 28
15626 19531 19533 28
15627 19531 19534 28
15628 19531 19535 28
15629 19536 19537 28
15630 19536 19538 28
15631 19536 19539 28
15632 19536 19540 28
15633 19541 19542 28
15634 19541 19543 28
15635 19541 19544 28
15636 19541 19545 28
15637 19546 19547 28
15638 19546 19548 28
15639 19546 19549 28
15640 19546 19550 28
15641 19551 19552 28
15642 19551 19553 28
15643 19551 19554 28
15644 19551 19555 28
15645 19556 19557 28
15646 19556 19558 28
15647 19556 19559 28
15648 19556 19560 28
15649 19561 19562 28
15650 19561 19563 28
15651 19561 19564 28
15652 19561 19565 28
15653 19566 19567 28
15654 19566 19568 28
15655 19566 19569 28
15656 19566 19570 28
15657 19571 19572 28
15658 19571 19573 28
15659 19571 19574 28
15660 19571 19575 28
15661 19576 19577 28
15662 19576 19578 28
15663 19576 19579 28
15664 19576 19580 28
15665 19581 19582 28
15666 19581 19583 28
15667 19581 19584 28
15668 19581 19585 28
15669 19586 19587 28
15670 19586 19588 28
15671 19586 19589 28
15672 19586 19590 28
15673 19591 19592 28
15674 19591 19593 28
15675 19591 19594 28
15676 19591 19595 28
15677 19596 19597 28
15678 19596 19598 28
15679 19596 19599 28
15680 19596 19600 28
15681 19601 19602 28
15682 19601 19603 28
15683 19601 19604 28
15684 19601 19605 28
15685 19606 19607 28
15686 19606 19608 28
15687 19606 19609 28
15688 19606 19610 28
15689 19611 19612 28
15690 19611 19613 28
15691 19611 19614 28
15692 19611 19615 28
15693 19616 19617 28
15694 19616 19618 28
15695 19616 19619 28
15696 19616 19620 28
15697 19621 19622 28
15698 19621 19623 28
15699 19621 19624 28
15700 19621 19625 28
15701 19626 19627 28
15702 19626 19628 28
15703 19626 19629 28
15704 19626 19630 28
15705 19631 19632 28
15706 19631 19633 28
15707 19631 19634 28
15708 19631 19635 28
15709 19636 19637 28
15710 19636 19638 28
15711 19636 19639 28
15712 19636 19640 28
15713 19641 19642 28
15714 19641 19643 28
15715 19641 19644 28
15716 19641 19645 28
15717 19646 19647 28
15718 19646 19648 28
15719 19646 19649 28
15720 19646 19650 28
15721 19651 19652 28
15722 19651 19653 28
15723 19651 19654 28
15724 19651 19655 28
15725 19656 19657 28
15726 19656 19658 28
15727 19656 19659 28
15728 19656 19660 28
15729 19661 19662 28
15730 19661 19663 28
15731 19661 19664 28
15732 19661 19665 28
15733 19666 19667 28
15734 19666 19668 28
15735 19666 19669 28
15736 19666 19670 28
15737 19671 19672 28
15738 19671 19673 28
15739 19671 19674 28
15740 19671 19675 28
15741 19676 19677 28
15742 19676 19678 28
15743 19676 19679 28
15744 19676 19680 28
15745 19681 19682 28
15746 19681 19683 28
15747 19681 19684 28
15748 19681 19685 28
15749 19686 19687 28
15750 19686 19688 28
15751 19686 19689 28
15752 19686 19690 28
15753 19691 19692 28
15754 19691 19693 28
15755 19691 19694 28
15756 19691 19695 28
15757 19696 19697 28
15758 19696 19698 28
15759 19696 19699 28
15760 19696 19700 28
15761 19701 19702 28
15762 19701 19703 28
15763 19701 19704 28
15764 19701 19705 28
15765 19706 19707 28
15766 19706 19708 28
15767 19706 19709 28
15768 19706 19710 28
15769 19711 19712 28
15770 19711 19713 28
15771 19711 19714 28
15772 19711 19715 28
15773 19716 19717 28
15774 19716 19718 28
15775 19716 19719 28
15776 19716 19720 28
15777 19721 19722 28
15778 19721 19723 28
15779 19721 19724 28
15780 19721 19725 28
15781 19726 19727 28
15782 19726 19728 28
15783 19726 19729 28
15784 19726 19730 28
15785 19731 19732 28
15786 19731 19733 28
15787 19731 19734 28
15788 19731 19735 28
15789 19736 19737 28
15790 19736 19738 28
15791 19736 19739 28
15792 19736 19740 28
15793 19741 19742 28
15794 19741 19743 28
15795 19741 19744 28
15796 19741 19745 28
15797 19746 19747 28
15798 19746 19748 28
15799 19746 19749 28
15800 19746 19750 28
15801 19751 19752 28
15802 19751 19753 28
15803 19751 19754 28
15804 19751 19755 28
15805 19756 19757 28
15806 19756 19758 28
15807 19756 19759 28
15808 19756 19760 28
15809 19761 19762 28
15810 19761 19763 28
15811 19761 19764 28
15812 19761 19765 28
15813 19766 19767 28
15814 19766 19768 28
15815 19766 19769 28
15816 19766 19770 28
15817 19771 19772 28
15818 19771 19773 28
15819 19771 19774 28
15820 19771 19775 28
15821 19776 19777 28
15822 19776 19778 28
15823 19776 19779 28
15824 19776 19780 28
15825 19781 19782 28
15826 19781 19783 28
15827 19781 19784 28
15828 19781 19785 28
15829 19786 19787 28
15830 19786 19788 28
15831 19786 19789 28
15832 19786 19790 28
15833 19791 19792 28
15834 19791 19793 28
15835 19791 19794 28
15836 19791 19795 28
15837 19796 19797 28
15838 19796 19798 28
15839 19796 19799 28
15840 19796 19800 28
15841 19801 19802 28
15842 19801 19803 28
15843 19801 19804 28
15844 19801 19805 28
15845 19806 19807 28
15846 19806 19808 28
15847 19806 19809 28
15848 19806 19810 28
15849 19811 19812 28
15850 19811 19813 28
15851 19811 19814 28
15852 19811 19815 28
15853 19816 19817 28
15854 19816 19818 28
15855 19816 19819 28
15856 19816 19820 28
15857 19821 19822 28
15858 19821 19823 28
15859 19821 19824 28
15860 19821 19825 28
15861 19826 19827 28
15862 19826 19828 28
15863 19826 19829 28
15864 19826 19830 28
15865 19831 19832 28
15866 19831 19833 28
15867 19831 19834 28
15868 19831 19835 28
15869 19836 19837 28
15870 19836 19838 28
15871 19836 19839 28
15872 19836 19840 28
15873 19841 19842 28
15874 19841 19843 28
15875 19841 19844 28
15876 19841 19845 28
15877 19846 19847 28
15878 19846 19848 28
15879 19846 19849 28
15880 19846 19850 28
15881 19851 19852 28
15882 19851 19853 28
15883 19851 19854 28
15884 19851 19855 28
15885 19856 19857 28
15886 19856 19858 28
15887 19856 19859 28
15888 19856 19860 28
15889 19861 19862 28
15890 19861 19863 28
15891 19861 19864 28
15892 19861 19865 28
15893 19866 19867 28
15894 19866 19868 28
15895 19866 19869 28
15896 19866 19870 28
15897 19871 19872 28
15898 19871 19873 28
15899 19871 19874 28
15900 19871 19875 28
15901 19876 19877 28
15902 19876 19878 28
15903 19876 19879 28
15904 19876 19880 28
15905 19881 19882 28
15906 19881 19883 28
15907 19881 19884 28
15908 19881 19885 28
15909 19886 19887 28
15910 19886 19888 28
15911 19886 19889 28
15912 19886 19890 28
15913 19891 19892 28
15914 19891 19893 28
15915 19891 19894 28
15916 19891 19895 28
15917 19896 19897 28
15918 19896 19898 28
15919 19896 19899 28
15920 19896 19900 28
15921 19901 19902 28
15922 19901 19903 28
15923 19901 19904 28
15924 19901 19905 28
15925 19906 19907 28
15926 19906 19908 28
15927 19906 19909 28
15928 19906 19910 28
15929 19911 19912 28
15930 19911 19913 28
15931 19911 19914 28
15932 19911 19915 28
15933 19916 19917 28
15934 19916 19918 28
15935 19916 19919 28
15936 19916 19920 28
15937 19921 19922 28
15938 19921 19923 28
15939 19921 19924 28
15940 19921 19925 28
15941 19926 19927 28
15942 19926 19928 28
15943 19926 19929 28
15944 19926 19930 28
15945 19931 19932 28
15946 19931 19933 28
15947 19931 19934 28
15948 19931 19935 28
15949 19936 19937 28
15950 19936 19938 28
15951 19936 19939 28
15952 19936 19940 28
15953 19941 19942 28
15954 19941 19943 28
15955 19941 19944 28
15956 19941 19945 28
15957 19946 19947 28
15958 19946 19948 28
15959 19946 19949 28
15960 19946 19950 28
15961 19951 19952 28
15962 19951 19953 28
15963 19951 19954 28
15964 19951 19955 28
15965 19956 19957 28
15966 19956 19958 28
15967 19956 19959 28
15968 19956 19960 28
15969 19961 19962 28
15970 19961 19963 28
15971 19961 19964 28
15972 19961 19965 28
15973 19966 19967 28
15974 19966 19968 28
15975 19966 19969 28
15976 19966 19970 28
15977 19971 19972 28
15978 19971 19973 28
15979 19971 19974 28
15980 19971 19975 28
15981 19976 19977 28
15982 19976 19978 28
15983 19976 19979 28
15984 19976 19980 28
15985 19981 19982 28
15986 19981 19983 28
15987 19981 19984 28
15988 19981 19985 28
15989 19986 19987 28
15990 19986 19988 28
15991 19986 19989 28
15992 19986 19990 28
15993 19991 19992 28
15994 19991 19993 28
15995 19991 19994 28
15996 19991 19995 28
15997 19996 19997 28
15998 19996 19998 28
15999 19996 19999 28
16000 19996 20000 28
16001 20001 20002 28
16002 20001 20003 28
16003 20001 20004 28
16004 20001 20005 28
16005 20006 20007 28
16006 20006 20008 28
16007 20006 20009 28
16008 20006 20010 28
16009 20011 20012 28
16010 20011 20013 28
16011 20011 20014 28
16012 20011 20015 28
16013 20016 20017 28
16014 20016 20018 28
16015 20016 20019 28
16016 20016 20020 28
16017 20021 20022 28
16018 20021 20023 28
16019 20021 20024 28
16020 20021 20025 28
16021 20026 20027 28
16022 20026 20028 28
16023 20026 20029 28
16024 20026 20030 28
16025 20031 20032 28
16026 20031 20033 28
16027 20031 20034 28
16028 20031 20035 28
16029 20036 20037 28
16030 20036 20038 28
16031 20036 20039 28
16032 20036 20040 28
16033 20041 20042 28
16034 20041 20043 28
16035 20041 20044 28
16036 20041 20045 28
16037 20046 20047 28
16038 20046 20048 28
16039 20046 20049 28
16040 20046 20050 28
16041 20051 20052 28
16042 20051 20053 28
16043 20051 20054 28
16044 20051 20055 28
16045 20056 20057 28
16046 20056 20058 28
16047 20056 20059 28
16048 20056 20060 28
16049 20061 20062 28
16050 20061 20063 28
16051 20061 20064 28
16052 20061 20065 28
16053 20066 20067 28
16054 20066 20068 28
16055 20066 20069 28
16056 20066 20070 28
16057 20071 20072 28
16058 20071 20073 28
16059 20071 20074 28
16060 20071 20075 28
16061 20076 20077 28
16062 20076 20078 28
16063 20076 20079 28
16064 20076 20080 28
16065 20081 20082 28
16066 20081 20083 28
16067 20081 20084 28
16068 20081 20085 28
16069 20086 20087 28
16070 20086 20088 28
16071 20086 20089 28
16072 20086 20090 28
16073 20091 20092 28
16074 20091 20093 28
16075 20091 20094 28
16076 20091 20095 28
16077 20096 20097 28
16078 20096 20098 28
16079 20096 20099 28
16080 20096 20100 28
16081 20101 20102 28
16082 20101 20103 28
16083 20101 20104 28
16084 20101 20105 28
16085 20106 20107 28
16086 20106 20108 28
16087 20106 20109 28
16088 20106 20110 28
16089 20111 20112 28
16090 20111 20113 28
16091 20111 20114 28
16092 20111 20115 28
16093 20116 20117 28
16094 20116 20118 28
16095 20116 20119 28
16096 20116 20120 28
16097 20121 20122 28
16098 20121 20123 28
16099 20121 20124 28
16100 20121 20125 28
16101 20126 20127 28
16102 20126 20128 28
16103 20126 20129 28
16104 20126 20130 28
16105 20131 20132 28
16106 20131 20133 28
16107 20131 20134 28
16108 20131 20135 28
16109 20136 20137 28
16110 20136 20138 28
16111 20136 20139 28
16112 20136 20140 28
16113 20141 20142 28
16114 20141 20143 28
16115 20141 20144 28
16116 20141 20145 28
16117 20146 20147 28
16118 20146 20148 28
16119 20146 20149 28
16120 20146 20150 28
16121 20151 20152 28
16122 20151 20153 28
16123 20151 20154 28
16124 20151 20155 28
16125 20156 20157 28
16126 20156 20158 28
16127 20156 20159 28
16128 20156 20160 28
16129 20161 20162 28
16130 20161 20163 28
16131 20161 20164 28
16132 20161 20165 28
16133 20166 20167 28
16134 20166 20168 28
16135 20166 20169 28
16136 20166 20170 28
16137 20171 20172 28
16138 20171 20173 28
16139 20171 20174 28
16140 20171 20175 28
16141 20176 20177 28
16142 20176 20178 28
16143 20176 20179 28
16144 20176 20180 28
16145 20181 20182 28
16146 20181 20183 28
16147 20181 20184 28
16148 20181 20185 28
16149 20186 20187 28
16150 20186 20188 28
16151 20186 20189 28
16152 20186 20190 28
16153 20191 20192 28
16154 20191 20193 28
16155 20191 20194 28
16156 20191 20195 28
16157 20196 20197 28
16158 20196 20198 28
16159 20196 20199 28
16160 20196 20200 28
16161 20201 20202 28
16162 20201 20203 28
16163 20201 20204 28
16164 20201 20205 28
16165 20206 20207 28
16166 20206 20208 28
16167 20206 20209 28
16168 20206 20210 28
16169 20211 20212 28
16170 20211 20213 28
16171 20211 20214 28
16172 20211 20215 28
16173 20216 20217 28
16174 20216 20218 28
16175 20216 20219 28
16176 20216 20220 28
16177 20221 20222 28
16178 20221 20223 28
16179 20221 20224 28
16180 20221 20225 28
16181 20226 20227 28
16182 20226 20228 28
16183 20226 20229 28
16184 20226 20230 28
16185 20231 20232 28
16186 20231 20233 28
16187 20231 20234 28
16188 20231 20235 28
16189 20236 20237 28
16190 20236 20238 28
16191 20236 20239 28
16192 20236 20240 28
16193 20241 20242 28
16194 20241 20243 28
16195 20241 20244 28
16196 20241 20245 28
16197 20246 20247 28
16198 20246 20248 28
16199 20246 20249 28
16200 20246 20250 28
16201 20251 20252 28
16202 20251 20253 28
16203 20251 20254 28
16204 20251 20255 28
16205 20256 20257 28
16206 20256 20258 28
16207 20256 20259 28
16208 20256 20260 28
16209 20261 20262 28
16210 20261 20263 28
16211 20261 20264 28
16212 20261 20265 28
16213 20266 20267 28
16214 20266 20268 28
16215 20266 20269 28
16216 20266 20270 28
16217 20271 20272 28
16218 20271 20273 28
16219 20271 20274 28
16220 20271 20275 28
16221 20276 20277 28
16222 20276 20278 28
16223 20276 20279 28
16224 20276 20280 28
16225 20281 20282 28
16226 20281 20283 28
16227 20281 20284 28
16228 20281 20285 28
16229 20286 20287 28
16230 20286 20288 28
16231 20286 20289 28
16232 20286 20290 28
16233 20291 20292 28
16234 20291 20293 28
16235 20291 20294 28
16236 20291 20295 28
16237 20296 20297 28
16238 20296 20298 28
16239 20296 20299 28
16240 20296 20300 28
16241 20301 20302 28
16242 20301 20303 28
16243 20301 20304 28
16244 20301 20305 28
16245 20306 20307 28
16246 20306 20308 28
16247 20306 20309 28
16248 20306 20310 28
16249 20311 20312 28
16250 20311 20313 28
16251 20311 20314 28
16252 20311 20315 28
16253 20316 20317 28
16254 20316 20318 28
16255 20316 20319 28
16256 20316 20320 28
16257 20321 20322 28
16258 20321 20323 28
16259 20321 20324 28
16260 20321 20325 28
16261 20326 20327 28
16262 20326 20328 28
16263 20326 20329 28
16264 20326 20330 28
16265 20331 20332 28
16266 20331 20333 28
16267 20331 20334 28
16268 20331 20335 28
16269 20336 20337 28
16270 20336 20338 28
16271 20336 20339 28
16272 20336 20340 28
16273 20341 20342 28
16274 20341 20343 28
16275 20341 20344 28
16276 20341 20345 28
16277 20346 20347 28
16278 20346 20348 28
16279 20346 20349 28
16280 20346 20350 28
16281 20351 20352 28
16282 20351 20353 28
16283 20351 20354 28
16284 20351 20355 28
16285 20356 20357 28
16286 20356 20358 28
16287 20356 20359 28
16288 20356 20360 28
16289 20361 20362 28
16290 20361 20363 28
16291 20361 20364 28
16292 20361 20365 28
16293 20366 20367 28
16294 20366 20368 28
16295 20366 20369 28
16296 20366 20370 28
16297 20371 20372 28
16298 20371 20373 28
16299 20371 20374 28
16300 20371 20375 28
16301 20376 20377 28
16302 20376 20378 28
16303 20376 20379 28
16304 20376 20380 28
16305 20381 20382 28
16306 20381 20383 28
16307 20381 20384 28
16308 20381 20385 28
16309 20386 20387 28
16310 20386 20388 28
16311 20386 20389 28
16312 20386 20390 28
16313 20391 20392 28
16314 20391 20393 28
16315 20391 20394 28
16316 20391 20395 28
16317 20396 20397 28
16318 20396 20398 28
16319 20396 20399 28
16320 20396 20400 28
16321 20401 20402 28
16322 20401 20403 28
16323 20401 20404 28
16324 20401 20405 28
16325 20406 20407 28
16326 20406 20408 28
16327 20406 20409 28
16328 20406 20410 28
16329 20411 20412 28
16330 20411 20413 28
16331 20411 20414 28
16332 20411 20415 28
16333 20416 20417 28
16334 20416 20418 28
16335 20416 20419 28
16336 20416 20420 28
16337 20421 20422 28
16338 20421 20423 28
16339 20421 20424 28
16340 20421 20425 28
16341 20426 20427 28
16342 20426 20428 28
16343 20426 20429 28
16344 20426 20430 28
16345 20431 20432 28
16346 20431 20433 28
16347 20431 20434 28
16348 20431 20435 28
16349 20436 20437 28
16350 20436 20438 28
16351 20436 20439 28
16352 20436 20440 28
16353 20441 20442 28
16354 20441 20443 28
16355 20441 20444 28
16356 20441 20445 28
16357 20446 20447 28
16358 20446 20448 28
16359 20446 20449 28
16360 20446 20450 28
16361 20451 20452 28
16362 20451 20453 28
16363 20451 20454 28
16364 20451 20455 28
16365 20456 20457 28
16366 20456 20458 28
16367 20456 20459 28
16368 20456 20460 28
16369 20461 20462 28
16370 20461 20463 28
16371 20461 20464 28
16372 20461 20465 28
16373 20466 20467 28
16374 20466 20468 28
16375 20466 20469 28
16376 20466 20470 28
16377 20471 20472 28
16378 20471 20473 28
16379 20471 20474 28
16380 20471 20475 28
16381 20476 20477 28
16382 20476 20478 28
16383 20476 20479 28
16384 20476 20480 28
16385 20481 20482 28
16386 20481 20483 28
16387 20481 20484 28
16388 20481 20485 28
16389 20486 20487 28
16390 20486 20488 28
16391 20486 20489 28
16392 20486 20490 28
16393 20491 20492 28
16394 20491 20493 28
16395 20491 20494 28
16396 20491 20495 28
16397 20496 20497 28
16398 20496 20498 28
16399 20496 20499 28
16400 20496 20500 28
16401 20501 20502 28
16402 20501 20503 28
16403 20501 20504 28
16404 20501 20505 28
16405 20506 20507 28
16406 20506 20508 28
16407 20506 20509 28
16408 20506 20510 28
16409 20511 20512 28
16410 20511 20513 28
16411 20511 20514 28
16412 20511 20515 28
16413 20516 20517 28
16414 20516 20518 28
16415 20516 20519 28
16416 20516 20520 28
16417 20521 20522 28
16418 20521 20523 28
16419 20521 20524 28
16420 20521 20525 28
16421 20526 20527 28
16422 20526 20528 28
16423 20526 20529 28
16424 20526 20530 28
16425 20531 20532 28
16426 20531 20533 28
16427 20531 20534 28
16428 20531 20535 28
16429 20536 20537 28
16430 20536 20538 28
16431 20536 20539 28
16432 20536 20540 28
16433 20541 20542 28
16434 20541 20543 28
16435 20541 20544 28
16436 20541 20545 28
16437 20546 20547 28
16438 20546 20548 28
16439 20546 20549 28
16440 20546 20550 28
16441 20551 20552 28
16442 20551 20553 28
16443 20551 20554 28
16444 20551 20555 28
16445 20556 20557 28
16446 20556 20558 28
16447 20556 20559 28
16448 20556 20560 28
16449 20561 20562 28
16450 20561 20563 28
16451 20561 20564 28
16452 20561 20565 28
16453 20566 20567 28
16454 20566 20568 28
16455 20566 20569 28
16456 20566 20570 28
16457 20571 20572 28
16458 20571 20573 28
16459 20571 20574 28
16460 20571 20575 28
16461 20576 20577 28
16462 20576 20578 28
16463 20576 20579 28
16464 20576 20580 28
16465 20581 20582 28
16466 20581 20583 28
16467 20581 20584 28
16468 20581 20585 28
16469 20586 20587 28
16470 20586 20588 28
16471 20586 20589 28
16472 20586 20590 28
16473 20591 20592 28
16474 20591 20593 28
16475 20591 20594 28
16476 20591 20595 28
16477 20596 20597 28
16478 20596 20598 28
16479 20596 20599 28
16480 20596 20600 28
16481 20601 20602 28
16482 20601 20603 28
16483 20601 20604 28
16484 20601 20605 28
16485 20606 20607 28
16486 20606 20608 28
16487 20606 20609 28
16488 20606 20610 28
16489 20611 20612 28
16490 20611 20613 28
16491 20611 20614 28
16492 20611 20615 28
16493 20616 20617 28
16494 20616 20618 28
16495 20616 20619 28
16496 20616 20620 28
16497 20621 20622 28
16498 20621 20623 28
16499 20621 20624 28
16500 20621 20625 28
16501 20626 20627 28
16502 20626 20628 28
16503 20626 20629 28
16504 20626 20630 28
16505 20631 20632 28
16506 20631 20633 28
16507 20631 20634 28
16508 20631 20635 28
16509 20636 20637 28
16510 20636 20638 28
16511 20636 20639 28
16512 20636 20640 28
16513 20641 20642 28
16514 20641 20643 28
16515 20641 20644 28
16516 20641 20645 28
16517 20646 20647 28
16518 20646 20648 28
16519 20646 20649 28
16520 20646 20650 28
16521 20651 20652 28
16522 20651 20653 28
16523 20651 20654 28
16524 20651 20655 28
16525 20656 20657 28
16526 20656 20658 28
16527 20656 20659 28
16528 20656 20660 28
16529 20661 20662 28
16530 20661 20663 28
16531 20661 20664 28
16532 20661 20665 28
16533 20666 20667 28
16534 20666 20668 28
16535 20666 20669 28
16536 20666 20670 28
16537 20671 20672 28
16538 20671 20673 28
16539 20671 20674 28
16540 20671 20675 28
16541 20676 20677 28
16542 20676 20678 28
16543 20676 20679 28
16544 20676 20680 28
16545 20681 20682 28
16546 20681 20683 28
16547 20681 20684 28
16548 20681 20685 28
16549 20686 20687 28
16550 20686 20688 28
16551 20686 20689 28
16552 20686 20690 28
16553 20691 20692 28
16554 20691 20693 28
16555 20691 20694 28
16556 20691 20695 28
16557 20696 20697 28
16558 20696 20698 28
16559 20696 20699 28
16560 20696 20700 28
16561 20701 20702 28
16562 20701 20703 28
16563 20701 20704 28
16564 20701 20705 28
16565 20706 20707 28
16566 20706 20708 28
16567 20706 20709 28
16568 20706 20710 28
16569 20711 20712 28
16570 20711 20713 28
16571 20711 20714 28
16572 20711 20715 28
16573 20716 20717 28
16574 20716 20718 28
16575 20716 20719 28
16576 20716 20720 28
16577 20721 20722 28
16578 20721 20723 28
16579 20721 20724 28
16580 20721 20725 28
16581 20726 20727 28
16582 20726 20728 28
16583 20726 20729 28
16584 20726 20730 28
16585 20731 20732 28
16586 20731 20733 28
16587 20731 20734 28
16588 20731 20735 28
16589 20736 20737 28
16590 20736 20738 28
16591 20736 20739 28
16592 20736 20740 28
16593 20741 20742 28
16594 20741 20743 28
16595 20741 20744 28
16596 20741 20745 28
16597 20746 20747 28
16598 20746 20748 28
16599 20746 20749 28
16600 20746 20750 28
16601 20751 20752 28
16602 20751 20753 28
16603 20751 20754 28
16604 20751 20755 28
16605 20756 20757 28
16606 20756 20758 28
16607 20756 20759 28
16608 20756 20760 28
16609 20761 20762 28
16610 20761 20763 28
16611 20761 20764 28
16612 20761 20765 28
16613 20766 20767 28
16614 20766 20768 28
16615 20766 20769 28
16616 20766 20770 28
16617 20771 20772 28
16618 20771 20773 28
16619 20771 20774 28
16620 20771 20775 28
16621 20776 20777 28
16622 20776 20778 28
16623 20776 20779 28
16624 20776 20780 28
16625 20781 20782 28
16626 20781 20783 28
16627 20781 20784 28
16628 20781 20785 28
16629 20786 20787 28
16630 20786 20788 28
16631 20786 20789 28
16632 20786 20790 28
16633 20791 20792 28
16634 20791 20793 28
16635 20791 20794 28
16636 20791 20795 28
16637 20796 20797 28
16638 20796 20798 28
16639 20796 20799 28
16640 20796 20800 28
16641 20801 20802 28
16642 20801 20803 28
16643 20801 20804 28
16644 20801 20805 28
16645 20806 20807 28
16646 20806 20808 28
16647 20806 20809 28
16648 20806 20810 28
16649 20811 20812 28
16650 20811 20813 28
16651 20811 20814 28
16652 20811 20815 28
16653 20816 20817 28
16654 20816 20818 28
16655 20816 20819 28
16656 20816 20820 28
16657 20821 20822 28
16658 20821 20823 28
16659 20821 20824 28
16660 20821 20825 28
16661 20826 20827 28
16662 20826 20828 28
16663 20826 20829 28
16664 20826 20830 28
16665 20831 20832 28
16666 20831 20833 28
16667 20831 20834 28
16668 20831 20835 28
16669 20836 20837 28
16670 20836 20838 28
16671 20836 20839 28
16672 20836 20840 28
16673 20841 20842 28
16674 20841 20843 28
16675 20841 20844 28
16676 20841 20845 28
16677 20846 20847 28
16678 20846 20848 28
16679 20846 20849 28
16680 20846 20850 28
16681 20851 20852 28
16682 20851 20853 28
16683 20851 20854 28
16684 20851 20855 28
16685 20856 20857 28
16686 20856 20858 28
16687 20856 20859 28
16688 20856 20860 28
16689 20861 20862 28
16690 20861 20863 28
16691 20861 20864 28
16692 20861 20865 28
16693 20866 20867 28
16694 20866 20868 28
16695 20866 20869 28
16696 20866 20870 28
16697 20871 20872 28
16698 20871 20873 28
16699 20871 20874 28
16700 20871 20875 28
16701 20876 20877 28
16702 20876 20878 28
16703 20876 20879 28
16704 20876 20880 28
16705 20881 20882 28
16706 20881 20883 28
16707 20881 20884 28
16708 20881 20885 28
16709 20886 20887 28
16710 20886 20888 28
16711 20886 20889 28
16712 20886 20890 28
16713 20891 20892 28
16714 20891 20893 28
16715 20891 20894 28
16716 20891 20895 28
16717 20896 20897 28
16718 20896 20898 28
16719 20896 20899 28
16720 20896 20900 28
16721 20901 20902 28
16722 20901 20903 28
16723 20901 20904 28
16724 20901 20905 28
16725 20906 20907 28
16726 20906 20908 28
16727 20906 20909 28
16728 20906 20910 28
16729 20911 20912 28
16730 20911 20913 28
16731 20911 20914 28
16732 20911 20915 28
16733 20916 20917 28
16734 20916 20918 28
16735 20916 20919 28
16736 20916 20920 28
16737 20921 20922 28
16738 20921 20923 28
16739 20921 20924 28
16740 20921 20925 28
16741 20926 20927 28
16742 20926 20928 28
16743 20926 20929 28
16744 20926 20930 28
16745 20931 20932 28
16746 20931 20933 28
16747 20931 20934 28
16748 20931 20935 28
16749 20936 20937 28
16750 20936 20938 28
16751 20936 20939 28
16752 20936 20940 28
16753 20941 20942 28
16754 20941 20943 28
16755 20941 20944 28
16756 20941 20945 28
16757 20946 20947 28
16758 20946 20948 28
16759 20946 20949 28
16760 20946 20950 28
16761 20951 20952 28
16762 20951 20953 28
16763 20951 20954 28
16764 20951 20955 28
16765 20956 20957 28
16766 20956 20958 28
16767 20956 20959 28
16768 20956 20960 28
16769 20961 20962 28
16770 20961 20963 28
16771 20961 20964 28
16772 20961 20965 28
16773 20966 20967 28
16774 20966 20968 28
16775 20966 20969 28
16776 20966 20970 28
16777 20971 20972 28
16778 20971 20973 28
16779 20971 20974 28
16780 20971 20975 28
16781 20976 20977 28
16782 20976 20978 28
16783 20976 20979 28
16784 20976 20980 28
16785 20981 20982 28
16786 20981 20983 28
16787 20981 20984 28
16788 20981 20985 28
16789 20986 20987 28
16790 20986 20988 28
16791 20986 20989 28
16792 20986 20990 28
16793 20991 20992 28
16794 20991 20993 28
16795 20991 20994 28
16796 20991 20995 28
16797 20996 20997 28
16798 20996 20998 28
16799 20996 20999 28
16800 20996 21000 28
16801 21001 21002 28
16802 21001 21003 28
16803 21001 21004 28
16804 21001 21005 28
16805 21006 21007 28
16806 21006 21008 28
16807 21006 21009 28
16808 21006 21010 28
16809 21011 21012 28
16810 21011 21013 28
16811 21011 21014 28
16812 21011 21015 28
16813 21016 21017 28
16814 21016 21018 28
16815 21016 21019 28
16816 21016 21020 28
16817 21021 21022 28
16818 21021 21023 28
16819 21021 21024 28
16820 21021 21025 28
16821 21026 21027 28
16822 21026 21028 28
16823 21026 21029 28
16824 21026 21030 28
16825 21031 21032 28
16826 21031 21033 28
16827 21031 21034 28
16828 21031 21035 28
16829 21036 21037 28
16830 21036 21038 28
16831 21036 21039 28
16832 21036 21040 28
16833 21041 21042 28
16834 21041 21043 28
16835 21041 21044 28
16836 21041 21045 28
16837 21046 21047 28
16838 21046 21048 28
16839 21046 21049 28
16840 21046 21050 28
16841 21051 21052 28
16842 21051 21053 28
16843 21051 21054 28
16844 21051 21055 28
16845 21056 21057 28
16846 21056 21058 28
16847 21056 21059 28
16848 21056 21060 28
16849 21061 21062 28
16850 21061 21063 28
16851 21061 21064 28
16852 21061 21065 28
16853 21066 21067 28
16854 21066 21068 28
16855 21066 21069 28
16856 21066 21070 28
16857 21071 21072 28
16858 21071 21073 28
16859 21071 21074 28
16860 21071 21075 28
16861 21076 21077 28
16862 21076 21078 28
16863 21076 21079 28
16864 21076 21080 28
16865 21081 21082 28
16866 21081 21083 28
16867 21081 21084 28
16868 21081 21085 28
16869 21086 21087 28
16870 21086 21088 28
16871 21086 21089 28
16872 21086 21090 28
16873 21091 21092 28
16874 21091 21093 28
16875 21091 21094 28
16876 21091 21095 28
16877 21096 21097 28
16878 21096 21098 28
16879 21096 21099 28
16880 21096 21100 28
16881 21101 21102 28
16882 21101 21103 28
16883 21101 21104 28
16884 21101 21105 28
16885 21106 21107 28
16886 21106 21108 28
16887 21106 21109 28
16888 21106 21110 28
16889 21111 21112 28
16890 21111 21113 28
16891 21111 21114 28
16892 21111 21115 28
16893 21116 21117 28
16894 21116 21118 28
16895 21116 21119 28
16896 21116 21120 28
16897 21121 21122 28
16898 21121 21123 28
16899 21121 21124 28
16900 21121 21125 28
16901 21126 21127 28
16902 21126 21128 28
16903 21126 21129 28
16904 21126 21130 28
16905 21131 21132 28
16906 21131 21133 28
16907 21131 21134 28
16908 21131 21135 28
16909 21136 21137 28
16910 21136 21138 28
16911 21136 21139 28
16912 21136 21140 28
16913 21141 21142 28
16914 21141 21143 28
16915 21141 21144 28
16916 21141 21145 28
16917 21146 21147 28
16918 21146 21148 28
16919 21146 21149 28
16920 21146 21150 28
16921 21151 21152 28
16922 21151 21153 28
16923 21151 21154 28
16924 21151 21155 28
16925 21156 21157 28
16926 21156 21158 28
16927 21156 21159 28
16928 21156 21160 28
16929 21161 21162 28
16930 21161 21163 28
16931 21161 21164 28
16932 21161 21165 28
16933 21166 21167 28
16934 21166 21168 28
16935 21166 21169 28
16936 21166 21170 28
16937 21171 21172 28
16938 21171 21173 28
16939 21171 21174 28
16940 21171 21175 28
16941 21176 21177 28
16942 21176 21178 28
16943 21176 21179 28
16944 21176 21180 28
16945 21181 21182 28
16946 21181 21183 28
16947 21181 21184 28
16948 21181 21185 28
16949 21186 21187 28
16950 21186 21188 28
16951 21186 21189 28
16952 21186 21190 28
16953 21191 21192 28
16954 21191 21193 28
16955 21191 21194 28
16956 21191 21195 28
16957 21196 21197 28
16958 21196 21198 28
16959 21196 21199 28
16960 21196 21200 28
16961 21201 21202 28
16962 21201 21203 28
16963 21201 21204 28
16964 21201 21205 28
16965 21206 21207 28
16966 21206 21208 28
16967 21206 21209 28
16968 21206 21210 28
16969 21211 21212 28
16970 21211 21213 28
16971 21211 21214 28
16972 21211 21215 28
16973 21216 21217 28
16974 21216 21218 28
16975 21216 21219 28
16976 21216 21220 28
16977 21221 21222 28
16978 21221 21223 28
16979 21221 21224 28
16980 21221 21225 28
16981 21226 21227 28
16982 21226 21228 28
16983 21226 21229 28
16984 21226 21230 28
16985 21231 21232 28
16986 21231 21233 28
16987 21231 21234 28
16988 21231 21235 28
16989 21236 21237 28
16990 21236 21238 28
16991 21236 21239 28
16992 21236 21240 28
16993 21241 21242 28
16994 21241 21243 28
16995 21241 21244 28
16996 21241 21245 28
16997 21246 21247 28
16998 21246 21248 28
16999 21246 21249 28
17000 21246 21250 28
17001 21251 21252 28
17002 21251 21253 28
17003 21251 21254 28
17004 21251 21255 28
17005 21256 21257 28
17006 21256 21258 28
17007 21256 21259 28
17008 21256 21260 28
17009 21261 21262 28
17010 21261 21263 28
17011 21261 21264 28
17012 21261 21265 28
17013 21266 21267 28
17014 21266 21268 28
17015 21266 21269 28
17016 21266 21270 28
17017 21271 21272 28
17018 21271 21273 28
17019 21271 21274 28
17020 21271 21275 28
17021 21276 21277 28
17022 21276 21278 28
17023 21276 21279 28
17024 21276 21280 28
17025 21281 21282 28
17026 21281 21283 28
17027 21281 21284 28
17028 21281 21285 28
17029 21286 21287 28
17030 21286 21288 28
17031 21286 21289 28
17032 21286 21290 28
17033 21291 21292 28
17034 21291 21293 28
17035 21291 21294 28
17036 21291 21295 28
17037 21296 21297 28
17038 21296 21298 28
17039 21296 21299 28
17040 21296 21300 28
17041 21301 21302 28
17042 21301 21303 28
17043 21301 21304 28
17044 21301 21305 28
17045 21306 21307 28
17046 21306 21308 28
17047 21306 21309 28
17048 21306 21310 28
17049 21311 21312 28
17050 21311 21313 28
17051 21311 21314 28
17052 21311 21315 28
17053 21316 21317 28
17054 21316 21318 28
17055 21316 21319 28
17056 21316 21320 28
17057 21321 21322 28
17058 21321 21323 28
17059 21321 21324 28
17060 21321 21325 28
17061 21326 21327 28
17062 21326 21328 28
17063 21326 21329 28
17064 21326 21330 28
17065 21331 21332 28
17066 21331 21333 28
17067 21331 21334 28
17068 21331 21335 28
17069 21336 21337 28
17070 21336 21338 28
17071 21336 21339 28
17072 21336 21340 28
17073 21341 21342 28
17074 21341 21343 28
17075 21341 21344 28
17076 21341 21345 28
17077 21346 21347 28
17078 21346 21348 28
17079 21346 21349 28
17080 21346 21350 28
17081 21351 21352 28
17082 21351 21353 28
17083 21351 21354 28
17084 21351 21355 28
17085 21356 21357 28
17086 21356 21358 28
17087 21356 21359 28
17088 21356 21360 28
17089 21361 21362 28
17090 21361 21363 28
17091 21361 21364 28
17092 21361 21365 28
17093 21366 21367 28
17094 21366 21368 28
17095 21366 21369 28
17096 21366 21370 28
17097 21371 21372 28
17098 21371 21373 28
17099 21371 21374 28
17100 21371 21375 28
17101 21376 21377 28
17102 21376 21378 28
17103 21376 21379 28
17104 21376 21380 28
17105 21381 21382 28
17106 21381 21383 28
17107 21381 21384 28
17108 21381 21385 28
17109 21386 21387 28
17110 21386 21388 28
17111 21386 21389 28
17112 21386 21390 28
17113 21391 21392 28
17114 21391 21393 28
17115 21391 21394 28
17116 21391 21395 28
17117 21396 21397 28
17118 21396 21398 28
17119 21396 21399 28
17120 21396 21400 28
17121 21401 21402 28
17122 21401 21403 28
17123 21401 21404 28
17124 21401 21405 28
17125 21406 21407 28
17126 21406 21408 28
17127 21406 21409 28
17128 21406 21410 28
17129 21411 21412 28
17130 21411 21413 28
17131 21411 21414 28
17132 21411 21415 28
17133 21416 21417 28
17134 21416 21418 28
17135 21416 21419 28
17136 21416 21420 28
17137 21421 21422 28
17138 21421 21423 28
17139 21421 21424 28
17140 21421 21425 28
17141 21426 21427 28
17142 21426 21428 28
17143 21426 21429 28
17144 21426 21430 28
17145 21431 21432 28
17146 21431 21433 28
17147 21431 21434 28
17148 21431 21435 28
17149 21436 21437 28
17150 21436 21438 28
17151 21436 21439 28
17152 21436 21440 28
17153 21441 21442 28
17154 21441 21443 28
17155 21441 21444 28
17156 21441 21445 28
17157 21446 21447 28
17158 21446 21448 28
17159 21446 21449 28
17160 21446 21450 28
17161 21451 21452 28
17162 21451 21453 28
17163 21451 21454 28
17164 21451 21455 28
17165 21456 21457 28
17166 21456 21458 28
17167 21456 21459 28
17168 21456 21460 28
17169 21461 21462 28
17170 21461 21463 28
17171 21461 21464 28
17172 21461 21465 28
17173 21466 21467 28
17174 21466 21468 28
17175 21466 21469 28
17176 21466 21470 28
17177 21471 21472 28
17178 21471 21473 28
17179 21471 21474 28
17180 21471 21475 28
17181 21476 21477 28
17182 21476 21478 28
17183 21476 21479 28
17184 21476 21480 28
17185 21481 21482 28
17186 21481 21483 28
17187 21481 21484 28
17188 21481 21485 28
17189 21486 21487 28
17190 21486 21488 28
17191 21486 21489 28
17192 21486 21490 28
17193 21491 21492 28
17194 21491 21493 28
17195 21491 21494 28
17196 21491 21495 28
17197 21496 21497 28
17198 21496 21498 28
17199 21496 21499 28
17200 21496 21500 28
17201 21501 21502 28
17202 21501 21503 28
17203 21501 21504 28
17204 21501 21505 28
17205 21506 21507 28
17206 21506 21508 28
17207 21506 21509 28
17208 21506 21510 28
17209 21511 21512 28
17210 21511 21513 28
17211 21511 21514 28
17212 21511 21515 28
17213 21516 21517 28
17214 21516 21518 28
17215 21516 21519 28
17216 21516 21520 28
17217 21521 21522 28
17218 21521 21523 28
17219 21521 21524 28
17220 21521 21525 28
17221 21526 21527 28
17222 21526 21528 28
17223 21526 21529 28
17224 21526 21530 28
17225 21531 21532 28
17226 21531 21533 28
17227 21531 21534 28
17228 21531 21535 28
17229 21536 21537 28
17230 21536 21538 28
17231 21536 21539 28
17232 21536 21540 28
17233 21541 21542 28
17234 21541 21543 28
17235 21541 21544 28
17236 21541 21545 28
17237 21546 21547 28
17238 21546 21548 28
17239 21546 21549 28
17240 21546 21550 28
17241 21551 21552 28
17242 21551 21553 28
17243 21551 21554 28
17244 21551 21555 28
17245 21556 21557 28
17246 21556 21558 28
17247 21556 21559 28
17248 21556 21560 28
17249 21561 21562 28
17250 21561 21563 28
17251 21561 21564 28
17252 21561 21565 28
17253 21566 21567 28
17254 21566 21568 28
17255 21566 21569 28
17256 21566 21570 28
17257 21571 21572 28
17258 21571 21573 28
17259 21571 21574 28
17260 21571 21575 28
17261 21576 21577 28
17262 21576 21578 28
17263 21576 21579 28
17264 21576 21580 28
17265 21581 21582 28
17266 21581 21583 28
17267 21581 21584 28
17268 21581 21585 28
17269 21586 21587 28
17270 21586 21588 28
17271 21586 21589 28
17272 21586 21590 28
17273 21591 21592 28
17274 21591 21593 28
17275 21591 21594 28
17276 21591 21595 28
17277 21596 21597 28
17278 21596 21598 28
17279 21596 21599 28
17280 21596 21600 28
17281 21601 21602 28
17282 21601 21603 28
17283 21601 21604 28
17284 21601 21605 28
17285 21606 21607 28
17286 21606 21608 28
17287 21606 21609 28
17288 21606 21610 28
17289 21611 21612 28
17290 21611 21613 28
17291 21611 21614 28
17292 21611 21615 28
17293 21616 21617 28
17294 21616 21618 28
17295 21616 21619 28
17296 21616 21620 28
17297 21621 21622 28
17298 21621 21623 28
17299 21621 21624 28
17300 21621 21625 28
17301 21626 21627 28
17302 21626 21628 28
17303 21626 21629 28
17304 21626 21630 28
17305 21631 21632 28
17306 21631 21633 28
17307 21631 21634 28
17308 21631 21635 28
17309 21636 21637 28
17310 21636 21638 28
17311 21636 21639 28
17312 21636 21640 28
17313 21641 21642 28
17314 21641 21643 28
17315 21641 21644 28
17316 21641 21645 28
17317 21646 21647 28
17318 21646 21648 28
17319 21646 21649 28
17320 21646 21650 28
17321 21651 21652 28
17322 21651 21653 28
17323 21651 21654 28
17324 21651 21655 28
17325 21656 21657 28
17326 21656 21658 28
17327 21656 21659 28
17328 21656 21660 28
17329 21661 21662 28
17330 21661 21663 28
17331 21661 21664 28
17332 21661 21665 28
17333 21666 21667 28
17334 21666 21668 28
17335 21666 21669 28
17336 21666 21670 28
17337 21671 21672 28
17338 21671 21673 28
17339 21671 21674 28
17340 21671 21675 28
17341 21676 21677 28
17342 21676 21678 28
17343 21676 21679 28
17344 21676 21680 28
17345 21681 21682 28
17346 21681 21683 28
17347 21681 21684 28
17348 21681 21685 28
17349 21686 21687 28
17350 21686 21688 28
17351 21686 21689 28
17352 21686 21690 28
17353 21691 21692 28
17354 21691 21693 28
17355 21691 21694 28
17356 21691 21695 28
17357 21696 21697 28
17358 21696 21698 28
17359 21696 21699 28
17360 21696 21700 28
17361 21701 21702 28
17362 21701 21703 28
17363 21701 21704 28
17364 21701 21705 28
17365 21706 21707 28
17366 21706 21708 28
17367 21706 21709 28
17368 21706 21710 28
17369 21711 21712 28
17370 21711 21713 28
17371 21711 21714 28
17372 21711 21715 28
17373 21716 21717 28
17374 21716 21718 28
17375 21716 21719 28
17376 21716 21720 28
17377 21721 21722 28
17378 21721 21723 28
17379 21721 21724 28
17380 21721 21725 28
17381 21726 21727 28
17382 21726 21728 28
17383 21726 21729 28
17384 21726 21730 28
17385 21731 21732 28
17386 21731 21733 28
17387 21731 21734 28
17388 21731 21735 28
17389 21736 21737 28
17390 21736 21738 28
17391 21736 21739 28
17392 21736 21740 28
17393 21741 21742 28
17394 21741 21743 28
17395 21741 21744 28
17396 21741 21745 28
17397 21746 21747 28
17398 21746 21748 28
17399 21746 21749 28
17400 21746 21750 28
17401 21751 21752 28
17402 21751 21753 28
17403 21751 21754 28
17404 21751 21755 28
17405 21756 21757 28
17406 21756 21758 28
17407 21756 21759 28
17408 21756 21760 28
17409 21761 21762 28
17410 21761 21763 28
17411 21761 21764 28
17412 21761 21765 28
17413 21766 21767 28
17414 21766 21768 28
17415 21766 21769 28
17416 21766 21770 28
17417 21771 21772 28
17418 21771 21773 28
17419 21771 21774 28
17420 21771 21775 28
17421 21776 21777 28
17422 21776 21778 28
17423 21776 21779 28
17424 21776 21780 28
17425 21781 21782 28
17426 21781 21783 28
17427 21781 21784 28
17428 21781 21785 28
17429 21786 21787 28
17430 21786 21788 28
17431 21786 21789 28
17432 21786 21790 28
17433 21791 21792 28
17434 21791 21793 28
17435 21791 21794 28
17436 21791 21795 28
17437 21796 21797 28
17438 21796 21798 28
17439 21796 21799 28
17440 21796 21800 28
17441 21801 21802 28
17442 21801 21803 28
17443 21801 21804 28
17444 21801 21805 28
17445 21806 21807 28
17446 21806 21808 28
17447 21806 21809 28
17448 21806 21810 28
17449 21811 21812 28
17450 21811 21813 28
17451 21811 21814 28
17452 21811 21815 28
17453 21816 21817 28
17454 21816 21818 28
17455 21816 21819 28
17456 21816 21820 28
17457 21821 21822 28
17458 21821 21823 28
17459 21821 21824 28
17460 21821 21825 28
17461 21826 21827 28
17462 21826 21828 28
17463 21826 21829 28
17464 21826 21830 28
17465 21831 21832 28
17466 21831 21833 28
17467 21831 21834 28
17468 21831 21835 28
17469 21836 21837 28
17470 21836 21838 28
17471 21836 21839 28
17472 21836 21840 28
17473 21841 21842 28
17474 21841 21843 28
17475 21841 21844 28
17476 21841 21845 28
17477 21846 21847 28
17478 21846 21848 28
17479 21846 21849 28
17480 21846 21850 28
17481 21851 21852 28
17482 21851 21853 28
17483 21851 21854 28
17484 21851 21855 28
17485 21856 21857 28
17486 21856 21858 28
17487 21856 21859 28
17488 21856 21860 28
17489 21861 21862 28
17490 21861 21863 28
17491 21861 21864 28
17492 21861 21865 28
17493 21866 21867 28
17494 21866 21868 28
17495 21866 21869 28
17496 21866 21870 28
17497 21871 21872 28
17498 21871 21873 28
17499 21871 21874 28
17500 21871 21875 28
17501 21876 21877 28
17502 21876 21878 28
17503 21876 21879 28
17504 21876 21880 28
17505 21881 21882 28
17506 21881 21883 28
17507 21881 21884 28
17508 21881 21885 28
17509 21886 21887 28
17510 21886 21888 28
17511 21886 21889 28
17512 21886 21890 28
17513 21891 21892 28
17514 21891 21893 28
17515 21891 21894 28
17516 21891 21895 28
17517 21896 21897 28
17518 21896 21898 28
17519 21896 21899 28
17520 21896 21900 28
17521 21901 21902 28
17522 21901 21903 28
17523 21901 21904 28
17524 21901 21905 28
17525 21906 21907 28
17526 21906 21908 28
17527 21906 21909 28
17528 21906 21910 28
17529 21911 21912 28
17530 21911 21913 28
17531 21911 21914 28
17532 21911 21915 28
17533 21916 21917 28
17534 21916 21918 28
17535 21916 21919 28
17536 21916 21920 28
17537 21921 21922 28
17538 21921 21923 28
17539 21921 21924 28
17540 21921 21925 28
17541 21926 21927 28
17542 21926 21928 28
17543 21926 21929 28
17544 21926 21930 28
17545 21931 21932 28
17546 21931 21933 28
17547 21931 21934 28
17548 21931 21935 28
17549 21936 21937 28
17550 21936 21938 28
17551 21936 21939 28
17552 21936 21940 28
17553 21941 21942 28
17554 21941 21943 28
17555 21941 21944 28
17556 21941 21945 28
17557 21946 21947 28
17558 21946 21948 28
17559 21946 21949 28
17560 21946 21950 28
17561 21951 21952 28
17562 21951 21953 28
17563 21951 21954 28
17564 21951 21955 28
17565 21956 21957 28
17566 21956 21958 28
17567 21956 21959 28
17568 21956 21960 28
17569 21961 21962 28
17570 21961 21963 28
17571 21961 21964 28
17572 21961 21965 28
17573 21966 21967 28
17574 21966 21968 28
17575 21966 21969 28
17576 21966 21970 28
17577 21971 21972 28
17578 21971 21973 28
17579 21971 21974 28
17580 21971 21975 28
17581 21976 21977 28
17582 21976 21978 28
17583 21976 21979 28
17584 21976 21980 28
17585 21981 21982 28
17586 21981 21983 28
17587 21981 21984 28
17588 21981 21985 28
17589 21986 21987 28
17590 21986 21988 28
17591 21986 21989 28
17592 21986 21990 28
17593 21991 21992 28
17594 21991 21993 28
17595 21991 21994 28
17596 21991 21995 28
17597 21996 21997 28
17598 21996 21998 28
17599 21996 21999 28
17600 21996 22000 28
17601 22001 22002 28
17602 22001 22003 28
17603 22001 22004 28
17604 22001 22005 28
17605 22006 22007 28
17606 22006 22008 28
17607 22006 22009 28
17608 22006 22010 28
17609 22011 22012 28
17610 22011 22013 28
17611 22011 22014 28
17612 22011 22015 28
17613 22016 22017 28
17614 22016 22018 28
17615 22016 22019 28
17616 22016 22020 28
17617 22021 22022 28
17618 22021 22023 28
17619 22021 22024 28
17620 22021 22025 28
17621 22026 22027 28
17622 22026 22028 28
17623 22026 22029 28
17624 22026 22030 28
17625 22031 22032 28
17626 22031 22033 28
17627 22031 22034 28
17628 22031 22035 28
17629 22036 22037 28
17630 22036 22038 28
17631 22036 22039 28
17632 22036 22040 28
17633 22041 22042 28
17634 22041 22043 28
17635 22041 22044 28
17636 22041 22045 28
17637 22046 22047 28
17638 22046 22048 28
17639 22046 22049 28
17640 22046 22050 28
17641 22051 22052 28
17642 22051 22053 28
17643 22051 22054 28
17644 22051 22055 28
17645 22056 22057 28
17646 22056 22058 28
17647 22056 22059 28
17648 22056 22060 28
17649 22061 22062 28
17650 22061 22063 28
17651 22061 22064 28
17652 22061 22065 28
17653 22066 22067 28
17654 22066 22068 28
17655 22066 22069 28
17656 22066 22070 28
17657 22071 22072 28
17658 22071 22073 28
17659 22071 22074 28
17660 22071 22075 28
17661 22076 22077 28
17662 22076 22078 28
17663 22076 22079 28
17664 22076 22080 28
17665 22081 22082 28
17666 22081 22083 28
17667 22081 22084 28
17668 22081 22085 28
17669 22086 22087 28
17670 22086 22088 28
17671 22086 22089 28
17672 22086 22090 28
17673 22091 22092 28
17674 22091 22093 28
17675 22091 22094 28
17676 22091 22095 28
17677 22096 22097 28
17678 22096 22098 28
17679 22096 22099 28
17680 22096 22100 28
17681 22101 22102 28
17682 22101 22103 28
17683 22101 22104 28
17684 22101 22105 28
17685 22106 22107 28
17686 22106 22108 28
17687 22106 22109 28
17688 22106 22110 28
17689 22111 22112 28
17690 22111 22113 28
17691 22111 22114 28
17692 22111 22115 28
17693 22116 22117 28
17694 22116 22118 28
17695 22116 22119 28
17696 22116 22120 28
17697 22121 22122 28
17698 22121 22123 28
17699 22121 22124 28
17700 22121 22125 28
17701 22126 22127 28
17702 22126 22128 28
17703 22126 22129 28
17704 22126 22130 28
17705 22131 22132 28
17706 22131 22133 28
17707 22131 22134 28
17708 22131 22135 28
17709 22136 22137 28
17710 22136 22138 28
17711 22136 22139 28
17712 22136 22140 28
17713 22141 22142 28
17714 22141 22143 28
17715 22141 22144 28
17716 22141 22145 28
17717 22146 22147 28
17718 22146 22148 28
17719 22146 22149 28
17720 22146 22150 28
17721 22151 22152 28
17722 22151 22153 28
17723 22151 22154 28
17724 22151 22155 28
17725 22156 22157 28
17726 22156 22158 28
17727 22156 22159 28
17728 22156 22160 28
17729 22161 22162 28
17730 22161 22163 28
17731 22161 22164 28
17732 22161 22165 28
17733 22166 22167 28
17734 22166 22168 28
17735 22166 22169 28
17736 22166 22170 28
17737 22171 22172 28
17738 22171 22173 28
17739 22171 22174 28
17740 22171 22175 28
17741 22176 22177 28
17742 22176 22178 28
17743 22176 22179 28
17744 22176 22180 28
17745 22181 22182 28
17746 22181 22183 28
17747 22181 22184 28
17748 22181 22185 28
17749 22186 22187 28
17750 22186 22188 28
17751 22186 22189 28
17752 22186 22190 28
17753 22191 22192 28
17754 22191 22193 28
17755 22191 22194 28
17756 22191 22195 28
17757 22196 22197 28
17758 22196 22198 28
17759 22196 22199 28
17760 22196 22200 28
17761 22201 22202 28
17762 22201 22203 28
17763 22201 22204 28
17764 22201 22205 28
17765 22206 22207 28
17766 22206 22208 28
17767 22206 22209 28
17768 22206 22210 28
17769 22211 22212 28
17770 22211 22213 28
17771 22211 22214 28
17772 22211 22215 28
17773 22216 22217 28
17774 22216 22218 28
17775 22216 22219 28
17776 22216 22220 28
17777 22221 22222 28
17778 22221 22223 28
17779 22221 22224 28
17780 22221 22225 28
17781 22226 22227 28
17782 22226 22228 28
17783 22226 22229 28
17784 22226 22230 28
17785 22231 22232 28
17786 22231 22233 28
17787 22231 22234 28
17788 22231 22235 28
17789 22236 22237 28
17790 22236 22238 28
17791 22236 22239 28
17792 22236 22240 28
17793 22241 22242 28
17794 22241 22243 28
17795 22241 22244 28
17796 22241 22245 28
17797 22246 22247 28
17798 22246 22248 28
17799 22246 22249 28
17800 22246 22250 28
17801 22251 22252 28
17802 22251 22253 28
17803 22251 22254 28
17804 22251 22255 28
17805 22256 22257 28
17806 22256 22258 28
17807 22256 22259 28
17808 22256 22260 28
17809 22261 22262 28
17810 22261 22263 28
17811 22261 22264 28
17812 22261 22265 28
17813 22266 22267 28
17814 22266 22268 28
17815 22266 22269 28
17816 22266 22270 28
17817 22271 22272 28
17818 22271 22273 28
17819 22271 22274 28
17820 22271 22275 28
17821 22276 22277 28
17822 22276 22278 28
17823 22276 22279 28
17824 22276 22280 28
17825 22281 22282 28
17826 22281 22283 28
17827 22281 22284 28
17828 22281 22285 28
17829 22286 22287 28
17830 22286 22288 28
17831 22286 22289 28
17832 22286 22290 28
17833 22291 22292 28
17834 22291 22293 28
17835 22291 22294 28
17836 22291 22295 28
17837 22296 22297 28
17838 22296 22298 28
17839 22296 22299 28
17840 22296 22300 28
17841 22301 22302 28
17842 22301 22303 28
17843 22301 22304 28
17844 22301 22305 28
17845 22306 22307 28
17846 22306 22308 28
17847 22306 22309 28
17848 22306 22310 28
17849 22311 22312 28
17850 22311 22313 28
17851 22311 22314 28
17852 22311 22315 28
17853 22316 22317 28
17854 22316 22318 28
17855 22316 22319 28
17856 22316 22320 28
17857 22321 22322 28
17858 22321 22323 28
17859 22321 22324 28
17860 22321 22325 28
17861 22326 22327 28
17862 22326 22328 28
17863 22326 22329 28
17864 22326 22330 28
17865 22331 22332 28
17866 22331 22333 28
17867 22331 22334 28
17868 22331 22335 28
17869 22336 22337 28
17870 22336 22338 28
17871 22336 22339 28
17872 22336 22340 28
17873 22341 22342 28
17874 22341 22343 28
17875 22341 22344 28
17876 22341 22345 28
17877 22346 22347 28
17878 22346 22348 28
17879 22346 22349 28
17880 22346 22350 28
17881 22351 22352 28
17882 22351 22353 28
17883 22351 22354 28
17884 22351 22355 28
17885 22356 22357 28
17886 22356 22358 28
17887 22356 22359 28
17888 22356 22360 28
17889 22361 22362 28
17890 22361 22363 28
17891 22361 22364 28
17892 22361 22365 28
17893 22366 22367 28
17894 22366 22368 28
17895 22366 22369 28
17896 22366 22370 28
17897 22371 22372 28
17898 22371 22373 28
17899 22371 22374 28
17900 22371 22375 28
17901 22376 22377 28
17902 22376 22378 28
17903 22376 22379 28
17904 22376 22380 28
17905 22381 22382 28
17906 22381 22383 28
17907 22381 22384 28
17908 22381 22385 28
17909 22386 22387 28
17910 22386 22388 28
17911 22386 22389 28
17912 22386 22390 28
17913 22391 22392 28
17914 22391 22393 28
17915 22391 22394 28
17916 22391 22395 28
17917 22396 22397 28
17918 22396 22398 28
17919 22396 22399 28
17920 22396 22400 28
17921 22401 22402 28
17922 22401 22403 28
17923 22401 22404 28
17924 22401 22405 28
17925 22406 22407 28
17926 22406 22408 28
17927 22406 22409 28
17928 22406 22410 28
17929 22411 22412 28
17930 22411 22413 28
17931 22411 22414 28
17932 22411 22415 28
17933 22416 22417 28
17934 22416 22418 28
17935 22416 22419 28
17936 22416 22420 28
17937 22421 22422 28
17938 22421 22423 28
17939 22421 22424 28
17940 22421 22425 28
17941 22426 22427 28
17942 22426 22428 28
17943 22426 22429 28
17944 22426 22430 28
17945 22431 22432 28
17946 22431 22433 28
17947 22431 22434 28
17948 22431 22435 28
17949 22436 22437 28
17950 22436 22438 28
17951 22436 22439 28
17952 22436 22440 28
17953 22441 22442 28
17954 22441 22443 28
17955 22441 22444 28
17956 22441 22445 28
17957 22446 22447 28
17958 22446 22448 28
17959 22446 22449 28
17960 22446 22450 28
17961 22451 22452 28
17962 22451 22453 28
17963 22451 22454 28
17964 22451 22455 28
17965 22456 22457 28
17966 22456 22458 28
17967 22456 22459 28
17968 22456 22460 28
17969 22461 22462 28
17970 22461 22463 28
17971 22461 22464 28
17972 22461 22465 28
17973 22466 22467 28
17974 22466 22468 28
17975 22466 22469 28
17976 22466 22470 28
17977 22471 22472 28
17978 22471 22473 28
17979 22471 22474 28
17980 22471 22475 28
17981 22476 22477 28
17982 22476 22478 28
17983 22476 22479 28
17984 22476 22480 28
17985 22481 22482 28
17986 22481 22483 28
17987 22481 22484 28
17988 22481 22485 28
17989 22486 22487 28
17990 22486 22488 28
17991 22486 22489 28
17992 22486 22490 28
17993 22491 22492 28
17994 22491 22493 28
17995 22491 22494 28
17996 22491 22495 28
17997 22496 22497 28
17998 22496 22498 28
17999 22496 22499 28
18000 22496 22500 28
18001 22501 22502 28
18002 22501 22503 28
18003 22501 22504 28
18004 22501 22505 28
18005 22506 22507 28
18006 22506 22508 28
18007 22506 22509 28
18008 22506 22510 28
18009 22511 22512 28
18010 22511 22513 28
18011 22511 22514 28
18012 22511 22515 28
18013 22516 22517 28
18014 22516 22518 28
18015 22516 22519 28
18016 22516 22520 28
18017 22521 22522 28
18018 22521 22523 28
18019 22521 22524 28
18020 22521 22525 28
18021 22526 22527 28
18022 22526 22528 28
18023 22526 22529 28
18024 22526 22530 28
18025 22531 22532 28
18026 22531 22533 28
18027 22531 22534 28
18028 22531 22535 28
18029 22536 22537 28
18030 22536 22538 28
18031 22536 22539 28
18032 22536 22540 28
18033 22541 22542 28
18034 22541 22543 28
18035 22541 22544 28
18036 22541 22545 28
18037 22546 22547 28
18038 22546 22548 28
18039 22546 22549 28
18040 22546 22550 28
18041 22551 22552 28
18042 22551 22553 28
18043 22551 22554 28
18044 22551 22555 28
18045 22556 22557 28
18046 22556 22558 28
18047 22556 22559 28
18048 22556 22560 28
18049 22561 22562 28
18050 22561 22563 28
18051 22561 22564 28
18052 22561 22565 28
18053 22566 22567 28
18054 22566 22568 28
18055 22566 22569 28
18056 22566 22570 28
18057 22571 22572 28
18058 22571 22573 28
18059 22571 22574 28
18060 22571 22575 28
18061 22576 22577 28
18062 22576 22578 28
18063 22576 22579 28
18064 22576 22580 28
18065 22581 22582 28
18066 22581 22583 28
18067 22581 22584 28
18068 22581 22585 28
18069 22586 22587 28
18070 22586 22588 28
18071 22586 22589 28
18072 22586 22590 28
18073 22591 22592 28
18074 22591 22593 28
18075 22591 22594 28
18076 22591 22595 28
18077 22596 22597 28
18078 22596 22598 28
18079 22596 22599 28
18080 22596 22600 28
18081 22601 22602 28
18082 22601 22603 28
18083 22601 22604 28
18084 22601 22605 28
18085 22606 22607 28
18086 22606 22608 28
18087 22606 22609 28
18088 22606 22610 28
18089 22611 22612 28
18090 22611 22613 28
18091 22611 22614 28
18092 22611 22615 28
18093 22616 22617 28
18094 22616 22618 28
18095 22616 22619 28
18096 22616 22620 28
18097 22621 22622 28
18098 22621 22623 28
18099 22621 22624 28
18100 22621 22625 28
18101 22626 22627 28
18102 22626 22628 28
18103 22626 22629 28
18104 22626 22630 28
18105 22631 22632 28
18106 22631 22633 28
18107 22631 22634 28
18108 22631 22635 28
18109 22636 22637 28
18110 22636 22638 28
18111 22636 22639 28
18112 22636 22640 28
18113 22641 22642 28
18114 22641 22643 28
18115 22641 22644 28
18116 22641 22645 28
18117 22646 22647 28
18118 22646 22648 28
18119 22646 22649 28
18120 22646 22650 28
18121 22651 22652 28
18122 22651 22653 28
18123 22651 22654 28
18124 22651 22655 28
18125 22656 22657 28
18126 22656 22658 28
18127 22656 22659 28
18128 22656 22660 28
18129 22661 22662 28
18130 22661 22663 28
18131 22661 22664 28
18132 22661 22665 28
18133 22666 22667 28
18134 22666 22668 28
18135 22666 22669 28
18136 22666 22670 28
18137 22671 22672 28
18138 22671 22673 28
18139 22671 22674 28
18140 22671 22675 28
18141 22676 22677 28
18142 22676 22678 28
18143 22676 22679 28
18144 22676 22680 28
18145 22681 22682 28
18146 22681 22683 28
18147 22681 22684 28
18148 22681 22685 28
18149 22686 22687 28
18150 22686 22688 28
18151 22686 22689 28
18152 22686 22690 28
18153 22691 22692 28
18154 22691 22693 28
18155 22691 22694 28
18156 22691 22695 28
18157 22696 22697 28
18158 22696 22698 28
18159 22696 22699 28
18160 22696 22700 28
18161 22701 22702 28
18162 22701 22703 28
18163 22701 22704 28
18164 22701 22705 28
18165 22706 22707 28
18166 22706 22708 28
18167 22706 22709 28
18168 22706 22710 28
18169 22711 22712 28
18170 22711 22713 28
18171 22711 22714 28
18172 22711 22715 28
18173 22716 22717 28
18174 22716 22718 28
18175 22716 22719 28
18176 22716 22720 28
18177 22721 22722 28
18178 22721 22723 28
18179 22721 22724 28
18180 22721 22725 28
18181 22726 22727 28
18182 22726 22728 28
18183 22726 22729 28
18184 22726 22730 28
18185 22731 22732 28
18186 22731 22733 28
18187 22731 22734 28
18188 22731 22735 28
18189 22736 22737 28
18190 22736 22738 28
18191 22736 22739 28
18192 22736 22740 28
18193 22741 22742 28
18194 22741 22743 28
18195 22741 22744 28
18196 22741 22745 28
18197 22746 22747 28
18198 22746 22748 28
18199 22746 22749 28
18200 22746 22750 28
18201 22751 22752 28
18202 22751 22753 28
18203 22751 22754 28
18204 22751 22755 28
18205 22756 22757 28
18206 22756 22758 28
18207 22756 22759 28
18208 22756 22760 28
18209 22761 22762 28
18210 22761 22763 28
18211 22761 22764 28
18212 22761 22765 28
18213 22766 22767 28
18214 22766 22768 28
18215 22766 22769 28
18216 22766 22770 28
18217 22771 22772 28
18218 22771 22773 28
18219 22771 22774 28
18220 22771 22775 28
18221 22776 22777 28
18222 22776 22778 28
18223 22776 22779 28
18224 22776 22780 28
18225 22781 22782 28
18226 22781 22783 28
18227 22781 22784 28
18228 22781 22785 28
18229 22786 22787 28
18230 22786 22788 28
18231 22786 22789 28
18232 22786 22790 28
18233 22791 22792 28
18234 22791 22793 28
18235 22791 22794 28
18236 22791 22795 28
18237 22796 22797 28
18238 22796 22798 28
18239 22796 22799 28
18240 22796 22800 28
18241 22801 22802 28
18242 22801 22803 28
18243 22801 22804 28
18244 22801 22805 28
18245 22806 22807 28
18246 22806 22808 28
18247 22806 22809 28
18248 22806 22810 28
18249 22811 22812 28
18250 22811 22813 28
18251 22811 22814 28
18252 22811 22815 28
18253 22816 22817 28
18254 22816 22818 28
18255 22816 22819 28
18256 22816 22820 28
18257 22821 22822 28
18258 22821 22823 28
18259 22821 22824 28
18260 22821 22825 28
18261 22826 22827 28
18262 22826 22828 28
18263 22826 22829 28
18264 22826 22830 28
18265 22831 22832 28
18266 22831 22833 28
18267 22831 22834 28
18268 22831 22835 28
18269 22836 22837 28
18270 22836 22838 28
18271 22836 22839 28
18272 22836 22840 28
18273 22841 22842 28
18274 22841 22843 28
18275 22841 22844 28
18276 22841 22845 28
18277 22846 22847 28
18278 22846 22848 28
18279 22846 22849 28
18280 22846 22850 28
18281 22851 22852 28
18282 22851 22853 28
18283 22851 22854 28
18284 22851 22855 28
18285 22856 22857 28
18286 22856 22858 28
18287 22856 22859 28
18288 22856 22860 28
18289 22861 22862 28
18290 22861 22863 28
18291 22861 22864 28
18292 22861 22865 28
18293 22866 22867 28
18294 22866 22868 28
18295 22866 22869 28
18296 22866 22870 28
18297 22871 22872 28
18298 22871 22873 28
18299 22871 22874 28
18300 22871 22875 28
18301 22876 22877 28
18302 22876 22878 28
18303 22876 22879 28
18304 22876 22880 28
18305 22881 22882 28
18306 22881 22883 28
18307 22881 22884 28
18308 22881 22885 28
18309 22886 22887 28
18310 22886 22888 28
18311 22886 22889 28
18312 22886 22890 28
18313 22891 22892 28
18314 22891 22893 28
18315 22891 22894 28
18316 22891 22895 28
18317 22896 22897 28
18318 22896 22898 28
18319 22896 22899 28
18320 22896 22900 28
18321 22901 22902 28
18322 22901 22903 28
18323 22901 22904 28
18324 22901 22905 28
18325 22906 22907 28
18326 22906 22908 28
18327 22906 22909 28
18328 22906 22910 28
18329 22911 22912 28
18330 22911 22913 28
18331 22911 22914 28
18332 22911 22915 28
18333 22916 22917 28
18334 22916 22918 28
18335 22916 22919 28
18336 22916 22920 28
18337 22921 22922 28
18338 22921 22923 28
18339 22921 22924 28
18340 22921 22925 28
18341 22926 22927 28
18342 22926 22928 28
18343 22926 22929 28
18344 22926 22930 28
18345 22931 22932 28
18346 22931 22933 28
18347 22931 22934 28
18348 22931 22935 28
18349 22936 22937 28
18350 22936 22938 28
18351 22936 22939 28
18352 22936 22940 28
18353 22941 22942 28
18354 22941 22943 28
18355 22941 22944 28
18356 22941 22945 28
18357 22946 22947 28
18358 22946 22948 28
18359 22946 22949 28
18360 22946 22950 28
18361 22951 22952 28
18362 22951 22953 28
18363 22951 22954 28
18364 22951 22955 28
18365 22956 22957 28
18366 22956 22958 28
18367 22956 22959 28
18368 22956 22960 28
18369 22961 22962 28
18370 22961 22963 28
18371 22961 22964 28
18372 22961 22965 28
18373 22966 22967 28
18374 22966 22968 28
18375 22966 22969 28
18376 22966 22970 28
18377 22971 22972 28
18378 22971 22973 28
18379 22971 22974 28
18380 22971 22975 28
18381 22976 22977 28
18382 22976 22978 28
18383 22976 22979 28
18384 22976 22980 28
18385 22981 22982 28
18386 22981 22983 28
18387 22981 22984 28
18388 22981 22985 28
18389 22986 22987 28
18390 22986 22988 28
18391 22986 22989 28
18392 22986 22990 28
18393 22991 22992 28
18394 22991 22993 28
18395 22991 22994 28
18396 22991 22995 28
18397 22996 22997 28
18398 22996 22998 28
18399 22996 22999 28
18400 22996 23000 28
18401 23001 23002 28
18402 23001 23003 28
18403 23001 23004 28
18404 23001 23005 28
18405 23006 23007 28
18406 23006 23008 28
18407 23006 23009 28
18408 23006 23010 28
18409 23011 23012 28
18410 23011 23013 28
18411 23011 23014 28
18412 23011 23015 28
18413 23016 23017 28
18414 23016 23018 28
18415 23016 23019 28
18416 23016 23020 28
18417 23021 23022 28
18418 23021 23023 28
18419 23021 23024 28
18420 23021 23025 28
18421 23026 23027 28
18422 23026 23028 28
18423 23026 23029 28
18424 23026 23030 28
18425 23031 23032 28
18426 23031 23033 28
18427 23031 23034 28
18428 23031 23035 28
18429 23036 23037 28
18430 23036 23038 28
18431 23036 23039 28
18432 23036 23040 28
18433 23041 23042 28
18434 23041 23043 28
18435 23041 23044 28
18436 23041 23045 28
18437 23046 23047 28
18438 23046 23048 28
18439 23046 23049 28
18440 23046 23050 28
18441 23051 23052 28
18442 23051 23053 28
18443 23051 23054 28
18444 23051 23055 28
18445 23056 23057 28
18446 23056 23058 28
18447 23056 23059 28
18448 23056 23060 28
18449 23061 23062 28
18450 23061 23063 28
18451 23061 23064 28
18452 23061 23065 28
18453 23066 23067 28
18454 23066 23068 28
18455 23066 23069 28
18456 23066 23070 28
18457 23071 23072 28
18458 23071 23073 28
18459 23071 23074 28
18460 23071 23075 28
18461 23076 23077 28
18462 23076 23078 28
18463 23076 23079 28
18464 23076 23080 28
18465 23081 23082 28
18466 23081 23083 28
18467 23081 23084 28
18468 23081 23085 28
18469 23086 23087 28
18470 23086 23088 28
18471 23086 23089 28
18472 23086 23090 28
18473 23091 23092 28
18474 23091 23093 28
18475 23091 23094 28
18476 23091 23095 28
18477 23096 23097 28
18478 23096 23098 28
18479 23096 23099 28
18480 23096 23100 28
18481 23101 23102 28
18482 23101 23103 28
18483 23101 23104 28
18484 23101 23105 28
18485 23106 23107 28
18486 23106 23108 28
18487 23106 23109 28
18488 23106 23110 28
18489 23111 23112 28
18490 23111 23113 28
18491 23111 23114 28
18492 23111 23115 28
18493 23116 23117 28
18494 23116 23118 28
18495 23116 23119 28
18496 23116 23120 28
18497 23121 23122 28
18498 23121 23123 28
18499 23121 23124 28
18500 23121 23125 28
18501 23126 23127 28
18502 23126 23128 28
18503 23126 23129 28
18504 23126 23130 28
18505 23131 23132 28
18506 23131 23133 28
18507 23131 23134 28
18508 23131 23135 28
18509 23136 23137 28
18510 23136 23138 28
18511 23136 23139 28
18512 23136 23140 28
18513 23141 23142 28
18514 23141 23143 28
18515 23141 23144 28
18516 23141 23145 28
18517 23146 23147 28
18518 23146 23148 28
18519 23146 23149 28
18520 23146 23150 28
18521 23151 23152 28
18522 23151 23153 28
18523 23151 23154 28
18524 23151 23155 28
18525 23156 23157 28
18526 23156 23158 28
18527 23156 23159 28
18528 23156 23160 28
18529 23161 23162 28
18530 23161 23163 28
18531 23161 23164 28
18532 23161 23165 28
18533 23166 23167 28
18534 23166 23168 28
18535 23166 23169 28
18536 23166 23170 28
18537 23171 23172 28
18538 23171 23173 28
18539 23171 23174 28
18540 23171 23175 28
18541 23176 23177 28
18542 23176 23178 28
18543 23176 23179 28
18544 23176 23180 28
18545 23181 23182 28
18546 23181 23183 28
18547 23181 23184 28
18548 23181 23185 28
18549 23186 23187 28
18550 23186 23188 28
18551 23186 23189 28
18552 23186 23190 28
18553 23191 23192 28
18554 23191 23193 28
18555 23191 23194 28
18556 23191 23195 28
18557 23196 23197 28
18558 23196 23198 28
18559 23196 23199 28
18560 23196 23200 28
18561 23201 23202 28
18562 23201 23203 28
18563 23201 23204 28
18564 23201 23205 28
18565 23206 23207 28
18566 23206 23208 28
18567 23206 23209 28
18568 23206 23210 28
18569 23211 23212 28
18570 23211 23213 28
18571 23211 23214 28
18572 23211 23215 28
18573 23216 23217 28
18574 23216 23218 28
18575 23216 23219 28
18576 23216 23220 28
18577 23221 23222 28
18578 23221 23223 28
18579 23221 23224 28
18580 23221 23225 28
18581 23226 23227 28
18582 23226 23228 28
18583 23226 23229 28
18584 23226 23230 28
18585 23231 23232 28
18586 23231 23233 28
18587 23231 23234 28
18588 23231 23235 28
18589 23236 23237 28
18590 23236 23238 28
18591 23236 23239 28
18592 23236 23240 28
18593 23241 23242 28
18594 23241 23243 28
18595 23241 23244 28
18596 23241 23245 28
18597 23246 23247 28
18598 23246 23248 28
18599 23246 23249 28
18600 23246 23250 28
18601 23251 23252 28
18602 23251 23253 28
18603 23251 23254 28
18604 23251 23255 28
18605 23256 23257 28
18606 23256 23258 28
18607 23256 23259 28
18608 23256 23260 28
18609 23261 23262 28
18610 23261 23263 28
18611 23261 23264 28
18612 23261 23265 28
18613 23266 23267 28
18614 23266 23268 28
18615 23266 23269 28
18616 23266 23270 28
18617 23271 23272 28
18618 23271 23273 28
18619 23271 23274 28
18620 23271 23275 28
18621 23276 23277 28
18622 23276 23278 28
18623 23276 23279 28
18624 23276 23280 28
18625 23281 23282 28
18626 23281 23283 28
18627 23281 23284 28
18628 23281 23285 28
18629 23286 23287 28
18630 23286 23288 28
18631 23286 23289 28
18632 23286 23290 28
18633 23291 23292 28
18634 23291 23293 28
18635 23291 23294 28
18636 23291 23295 28
18637 23296 23297 28
18638 23296 23298 28
18639 23296 23299 28
18640 23296 23300 28
18641 23301 23302 28
18642 23301 23303 28
18643 23301 23304 28
18644 23301 23305 28
18645 23306 23307 28
18646 23306 23308 28
18647 23306 23309 28
18648 23306 23310 28
18649 23311 23312 28
18650 23311 23313 28
18651 23311 23314 28
18652 23311 23315 28
18653 23316 23317 28
18654 23316 23318 28
18655 23316 23319 28
18656 23316 23320 28
18657 23321 23322 28
18658 23321 23323 28
18659 23321 23324 28
18660 23321 23325 28
18661 23326 23327 28
18662 23326 23328 28
18663 23326 23329 28
18664 23326 23330 28
18665 23331 23332 28
18666 23331 23333 28
18667 23331 23334 28
18668 23331 23335 28
18669 23336 23337 28
18670 23336 23338 28
18671 23336 23339 28
18672 23336 23340 28
18673 23341 23342 28
18674 23341 23343 28
18675 23341 23344 28
18676 23341 23345 28
18677 23346 23347 28
18678 23346 23348 28
18679 23346 23349 28
18680 23346 23350 28
18681 23351 23352 28
18682 23351 23353 28
18683 23351 23354 28
18684 23351 23355 28
18685 23356 23357 28
18686 23356 23358 28
18687 23356 23359 28
18688 23356 23360 28
18689 23361 23362 28
18690 23361 23363 28
18691 23361 23364 28
18692 23361 23365 28
18693 23366 23367 28
18694 23366 23368 28
18695 23366 23369 28
18696 23366 23370 28
18697 23371 23372 28
18698 23371 23373 28
18699 23371 23374 28
18700 23371 23375 28
18701 23376 23377 28
18702 23376 23378 28
18703 23376 23379 28
18704 23376 23380 28
18705 23381 23382 28
18706 23381 23383 28
18707 23381 23384 28
18708 23381 23385 28
18709 23386 23387 28
18710 23386 23388 28
18711 23386 23389 28
18712 23386 23390 28
18713 23391 23392 28
18714 23391 23393 28
18715 23391 23394 28
18716 23391 23395 28
18717 23396 23397 28
18718 23396 23398 28
18719 23396 23399 28
18720 23396 23400 28
18721 23401 23402 28
18722 23401 23403 28
18723 23401 23404 28
18724 23401 23405 28
18725 23406 23407 28
18726 23406 23408 28
18727 23406 23409 28
18728 23406 23410 28
18729 23411 23412 28
18730 23411 23413 28
18731 23411 23414 28
18732 23411 23415 28
18733 23416 23417 28
18734 23416 23418 28
18735 23416 23419 28
18736 23416 23420 28
18737 23421 23422 28
18738 23421 23423 28
18739 23421 23424 28
18740 23421 23425 28
18741 23426 23427 28
18742 23426 23428 28
18743 23426 23429 28
18744 23426 23430 28
18745 23431 23432 28
18746 23431 23433 28
18747 23431 23434 28
18748 23431 23435 28
18749 23436 23437 28
18750 23436 23438 28
18751 23436 23439 28
18752 23436 23440 28
18753 23441 23442 28
18754 23441 23443 28
18755 23441 23444 28
18756 23441 23445 28
18757 23446 23447 28
18758 23446 23448 28
18759 23446 23449 28
18760 23446 23450 28
18761 23451 23452 28
18762 23451 23453 28
18763 23451 23454 28
18764 23451 23455 28
18765 23456 23457 28
18766 23456 23458 28
18767 23456 23459 28
18768 23456 23460 28
18769 23461 23462 28
18770 23461 23463 28
18771 23461 23464 28
18772 23461 23465 28
18773 23466 23467 28
18774 23466 23468 28
18775 23466 23469 28
18776 23466 23470 28
18777 23471 23472 28
18778 23471 23473 28
18779 23471 23474 28
18780 23471 23475 28
18781 23476 23477 28
18782 23476 23478 28
18783 23476 23479 28
18784 23476 23480 28
18785 23481 23482 28
18786 23481 23483 28
18787 23481 23484 28
18788 23481 23485 28
18789 23486 23487 28
18790 23486 23488 28
18791 23486 23489 28
18792 23486 23490 28
18793 23491 23492 28
18794 23491 23493 28
18795 23491 23494 28
18796 23491 23495 28
18797 23496 23497 28
18798 23496 23498 28
18799 23496 23499 28
18800 23496 23500 28
18801 23501 23502 28
18802 23501 23503 28
18803 23501 23504 28
18804 23501 23505 28
18805 23506 23507 28
18806 23506 23508 28
18807 23506 23509 28
18808 23506 23510 28
18809 23511 23512 28
18810 23511 23513 28
18811 23511 23514 28
18812 23511 23515 28
18813 23516 23517 28
18814 23516 23518 28
18815 23516 23519 28
18816 23516 23520 28
18817 23521 23522 28
18818 23521 23523 28
18819 23521 23524 28
18820 23521 23525 28
18821 23526 23527 28
18822 23526 23528 28
18823 23526 23529 28
18824 23526 23530 28
18825 23531 23532 28
18826 23531 23533 28
18827 23531 23534 28
18828 23531 23535 28
18829 23536 23537 28
18830 23536 23538 28
18831 23536 23539 28
18832 23536 23540 28
18833 23541 23542 28
18834 23541 23543 28
18835 23541 23544 28
18836 23541 23545 28
18837 23546 23547 28
18838 23546 23548 28
18839 23546 23549 28
18840 23546 23550 28
18841 23551 23552 28
18842 23551 23553 28
18843 23551 23554 28
18844 23551 23555 28
18845 23556 23557 28
18846 23556 23558 28
18847 23556 23559 28
18848 23556 23560 28
18849 23561 23562 28
18850 23561 23563 28
18851 23561 23564 28
18852 23561 23565 28
18853 23566 23567 28
18854 23566 23568 28
18855 23566 23569 28
18856 23566 23570 28
18857 23571 23572 28
18858 23571 23573 28
18859 23571 23574 28
18860 23571 23575 28
18861 23576 23577 28
18862 23576 23578 28
18863 23576 23579 28
18864 23576 23580 28
18865 23581 23582 28
18866 23581 23583 28
18867 23581 23584 28
18868 23581 23585 28
18869 23586 23587 28
18870 23586 23588 28
18871 23586 23589 28
18872 23586 23590 28
18873 23591 23592 28
18874 23591 23593 28
18875 23591 23594 28
18876 23591 23595 28
18877 23596 23597 28
18878 23596 23598 28
18879 23596 23599 28
18880 23596 23600 28
18881 23601 23602 28
18882 23601 23603 28
18883 23601 23604 28
18884 23601 23605 28
18885 23606 23607 28
18886 23606 23608 28
18887 23606 23609 28
18888 23606 23610 28
18889 23611 23612 28
18890 23611 23613 28
18891 23611 23614 28
18892 23611 23615 28
18893 23616 23617 28
18894 23616 23618 28
18895 23616 23619 28
18896 23616 23620 28
18897 23621 23622 28
18898 23621 23623 28
18899 23621 23624 28
18900 23621 23625 28
18901 23626 23627 28
18902 23626 23628 28
18903 23626 23629 28
18904 23626 23630 28
18905 23631 23632 28
18906 23631 23633 28
18907 23631 23634 28
18908 23631 23635 28
18909 23636 23637 28
18910 23636 23638 28
18911 23636 23639 28
18912 23636 23640 28
18913 23641 23642 28
18914 23641 23643 28
18915 23641 23644 28
18916 23641 23645 28
18917 23646 23647 28
18918 23646 23648 28
18919 23646 23649 28
18920 23646 23650 28
18921 23651 23652 28
18922 23651 23653 28
18923 23651 23654 28
18924 23651 23655 28
18925 23656 23657 28
18926 23656 23658 28
18927 23656 23659 28
18928 23656 23660 28
18929 23661 23662 28
18930 23661 23663 28
18931 23661 23664 28
18932 23661 23665 28
18933 23666 23667 28
18934 23666 23668 28
18935 23666 23669 28
18936 23666 23670 28
18937 23671 23672 28
18938 23671 23673 28
18939 23671 23674 28
18940 23671 23675 28
18941 23676 23677 28
18942 23676 23678 28
18943 23676 23679 28
18944 23676 23680 28
18945 23681 23682 28
18946 23681 23683 28
18947 23681 23684 28
18948 23681 23685 28
18949 23686 23687 28
18950 23686 23688 28
18951 23686 23689 28
18952 23686 23690 28
18953 23691 23692 28
18954 23691 23693 28
18955 23691 23694 28
18956 23691 23695 28
18957 23696 23697 28
18958 23696 23698 28
18959 23696 23699 28
18960 23696 23700 28
18961 23701 23702 28
18962 23701 23703 28
18963 23701 23704 28
18964 23701 23705 28
18965 23706 23707 28
18966 23706 23708 28
18967 23706 23709 28
18968 23706 23710 28
18969 23711 23712 28
18970 23711 23713 28
18971 23711 23714 28
18972 23711 23715 28
18973 23716 23717 28
18974 23716 23718 28
18975 23716 23719 28
18976 23716 23720 28
18977 23721 23722 28
18978 23721 23723 28
18979 23721 23724 28
18980 23721 23725 28
18981 23726 23727 28
18982 23726 23728 28
18983 23726 23729 28
18984 23726 23730 28
18985 23731 23732 28
18986 23731 23733 28
18987 23731 23734 28
18988 23731 23735 28
18989 23736 23737 28
18990 23736 23738 28
18991 23736 23739 28
18992 23736 23740 28
18993 23741 23742 28
18994 23741 23743 28
18995 23741 23744 28
18996 23741 23745 28
18997 23746 23747 28
18998 23746 23748 28
18999 23746 23749 28
19000 23746 23750 28
19001 23751 23752 28
19002 23751 23753 28
19003 23751 23754 28
19004 23751 23755 28
19005 23756 23757 28
19006 23756 23758 28
19007 23756 23759 28
19008 23756 23760 28
19009 23761 23762 28
19010 23761 23763 28
19011 23761 23764 28
19012 23761 23765 28
19013 23766 23767 28
19014 23766 23768 28
19015 23766 23769 28
19016 23766 23770 28
19017 23771 23772 28
19018 23771 23773 28
19019 23771 23774 28
19020 23771 23775 28
19021 23776 23777 28
19022 23776 23778 28
19023 23776 23779 28
19024 23776 23780 28
19025 23781 23782 28
19026 23781 23783 28
19027 23781 23784 28
19028 23781 23785 28
19029 23786 23787 28
19030 23786 23788 28
19031 23786 23789 28
19032 23786 23790 28
19033 23791 23792 28
19034 23791 23793 28
19035 23791 23794 28
19036 23791 23795 28
19037 23796 23797 28
19038 23796 23798 28
19039 23796 23799 28
19040 23796 23800 28
19041 23801 23802 28
19042 23801 23803 28
19043 23801 23804 28
19044 23801 23805 28
19045 23806 23807 28
19046 23806 23808 28
19047 23806 23809 28
19048 23806 23810 28
19049 23811 23812 28
19050 23811 23813 28
19051 23811 23814 28
19052 23811 23815 28
19053 23816 23817 28
19054 23816 23818 28
19055 23816 23819 28
19056 23816 23820 28
19057 23821 23822 28
19058 23821 23823 28
19059 23821 23824 28
19060 23821 23825 28
19061 23826 23827 28
19062 23826 23828 28
19063 23826 23829 28
19064 23826 23830 28
19065 23831 23832 28
19066 23831 23833 28
19067 23831 23834 28
19068 23831 23835 28
19069 23836 23837 28
19070 23836 23838 28
19071 23836 23839 28
19072 23836 23840 28
19073 23841 23842 28
19074 23841 23843 28
19075 23841 23844 28
19076 23841 23845 28
19077 23846 23847 28
19078 23846 23848 28
19079 23846 23849 28
19080 23846 23850 28
19081 23851 23852 28
19082 23851 23853 28
19083 23851 23854 28
19084 23851 23855 28
19085 23856 23857 28
19086 23856 23858 28
19087 23856 23859 28
19088 23856 23860 28
19089 23861 23862 28
19090 23861 23863 28
19091 23861 23864 28
19092 23861 23865 28
19093 23866 23867 28
19094 23866 23868 28
19095 23866 23869 28
19096 23866 23870 28
19097 23871 23872 28
19098 23871 23873 28
19099 23871 23874 28
19100 23871 23875 28
19101 23876 23877 28
19102 23876 23878 28
19103 23876 23879 28
19104 23876 23880 28
19105 23881 23882 28
19106 23881 23883 28
19107 23881 23884 28
19108 23881 23885 28
19109 23886 23887 28
19110 23886 23888 28
19111 23886 23889 28
19112 23886 23890 28
19113 23891 23892 28
19114 23891 23893 28
19115 23891 23894 28
19116 23891 23895 28
19117 23896 23897 28
19118 23896 23898 28
19119 23896 23899 28
19120 23896 23900 28
19121 23901 23902 28
19122 23901 23903 28
19123 23901 23904 28
19124 23901 23905 28
19125 23906 23907 28
19126 23906 23908 28
19127 23906 23909 28
19128 23906 23910 28
19129 23911 23912 28
19130 23911 23913 28
19131 23911 23914 28
19132 23911 23915 28
19133 23916 23917 28
19134 23916 23918 28
19135 23916 23919 28
19136 23916 23920 28
19137 23921 23922 28
19138 23921 23923 28
19139 23921 23924 28
19140 23921 23925 28
19141 23926 23927 28
19142 23926 23928 28
19143 23926 23929 28
19144 23926 23930 28
19145 23931 23932 28
19146 23931 23933 28
19147 23931 23934 28
19148 23931 23935 28
19149 23936 23937 28
19150 23936 23938 28
19151 23936 23939 28
19152 23936 23940 28
19153 23941 23942 28
19154 23941 23943 28
19155 23941 23944 28
19156 23941 23945 28
19157 23946 23947 28
19158 23946 23948 28
19159 23946 23949 28
19160 23946 23950 28
19161 23951 23952 28
19162 23951 23953 28
19163 23951 23954 28
19164 23951 23955 28
19165 23956 23957 28
19166 23956 23958 28
19167 23956 23959 28
19168 23956 23960 28
19169 23961 23962 28
19170 23961 23963 28
19171 23961 23964 28
19172 23961 23965 28
19173 23966 23967 28
19174 23966 23968 28
19175 23966 23969 28
19176 23966 23970 28
19177 23971 23972 28
19178 23971 23973 28
19179 23971 23974 28
19180 23971 23975 28
19181 23976 23977 28
19182 23976 23978 28
19183 23976 23979 28
19184 23976 23980 28
19185 23981 23982 28
19186 23981 23983 28
19187 23981 23984 28
19188 23981 23985 28
19189 23986 23987 28
19190 23986 23988 28
19191 23986 23989 28
19192 23986 23990 28
19193 23991 23992 28
19194 23991 23993 28
19195 23991 23994 28
19196 23991 23995 28
19197 23996 23997 28
19198 23996 23998 28
19199 23996 23999 28
19200 23996 24000 28
19201 24001 24002 28
19202 24001 24003 28
19203 24001 24004 28
19204 24001 24005 28
19205 24006 24007 28
19206 24006 24008 28
19207 24006 24009 28
19208 24006 24010 28
19209 24011 24012 28
19210 24011 24013 28
19211 24011 24014 28
19212 24011 24015 28
19213 24016 24017 28
19214 24016 24018 28
19215 24016 24019 28
19216 24016 24020 28
19217 24021 24022 28
19218 24021 24023 28
19219 24021 24024 28
19220 24021 24025 28
19221 24026 24027 28
19222 24026 24028 28
19223 24026 24029 28
19224 24026 24030 28
19225 24031 24032 28
19226 24031 24033 28
19227 24031 24034 28
19228 24031 24035 28
19229 24036 24037 28
19230 24036 24038 28
19231 24036 24039 28
19232 24036 24040 28
19233 24041 24042 28
19234 24041 24043 28
19235 24041 24044 28
19236 24041 24045 28
19237 24046 24047 28
19238 24046 24048 28
19239 24046 24049 28
19240 24046 24050 28
19241 24051 24052 28
19242 24051 24053 28
19243 24051 24054 28
19244 24051 24055 28
19245 24056 24057 28
19246 24056 24058 28
19247 24056 24059 28
19248 24056 24060 28
19249 24061 24062 28
19250 24061 24063 28
19251 24061 24064 28
19252 24061 24065 28
19253 24066 24067 28
19254 24066 24068 28
19255 24066 24069 28
19256 24066 24070 28
19257 24071 24072 28
19258 24071 24073 28
19259 24071 24074 28
19260 24071 24075 28
19261 24076 24077 28
19262 24076 24078 28
19263 24076 24079 28
19264 24076 24080 28
19265 24081 24082 28
19266 24081 24083 28
19267 24081 24084 28
19268 24081 24085 28
19269 24086 24087 28
19270 24086 24088 28
19271 24086 24089 28
19272 24086 24090 28
19273 24091 24092 28
19274 24091 24093 28
19275 24091 24094 28
19276 24091 24095 28
19277 24096 24097 28
19278 24096 24098 28
19279 24096 24099 28
19280 24096 24100 28
19281 24101 24102 28
19282 24101 24103 28
19283 24101 24104 28
19284 24101 24105 28
19285 24106 24107 28
19286 24106 24108 28
19287 24106 24109 28
19288 24106 24110 28
19289 24111 24112 28
19290 24111 24113 28
19291 24111 24114 28
19292 24111 24115 28
19293 24116 24117 28
19294 24116 24118 28
19295 24116 24119 28
19296 24116 24120 28
19297 24121 24122 28
19298 24121 24123 28
19299 24121 24124 28
19300 24121 24125 28
19301 24126 24127 28
19302 24126 24128 28
19303 24126 24129 28
19304 24126 24130 28
19305 24131 24132 28
19306 24131 24133 28
19307 24131 24134 28
19308 24131 24135 28
19309 24136 24137 28
19310 24136 24138 28
19311 24136 24139 28
19312 24136 24140 28
19313 24141 24142 28
19314 24141 24143 28
19315 24141 24144 28
19316 24141 24145 28
19317 24146 24147 28
19318 24146 24148 28
19319 24146 24149 28
19320 24146 24150 28
19321 24151 24152 28
19322 24151 24153 28
19323 24151 24154 28
19324 24151 24155 28
19325 24156 24157 28
19326 24156 24158 28
19327 24156 24159 28
19328 24156 24160 28
19329 24161 24162 28
19330 24161 24163 28
19331 24161 24164 28
19332 24161 24165 28
19333 24166 24167 28
19334 24166 24168 28
19335 24166 24169 28
19336 24166 24170 28
19337 24171 24172 28
19338 24171 24173 28
19339 24171 24174 28
19340 24171 24175 28
19341 24176 24177 28
19342 24176 24178 28
19343 24176 24179 28
19344 24176 24180 28
19345 24181 24182 28
19346 24181 24183 28
19347 24181 24184 28
19348 24181 24185 28
19349 24186 24187 28
19350 24186 24188 28
19351 24186 24189 28
19352 24186 24190 28
19353 24191 24192 28
19354 24191 24193 28
19355 24191 24194 28
19356 24191 24195 28
19357 24196 24197 28
19358 24196 24198 28
19359 24196 24199 28
19360 24196 24200 28
19361 24201 24202 28
19362 24201 24203 28
19363 24201 24204 28
19364 24201 24205 28
19365 24206 24207 28
19366 24206 24208 28
19367 24206 24209 28
19368 24206 24210 28
19369 24211 24212 28
19370 24211 24213 28
19371 24211 24214 28
19372 24211 24215 28
19373 24216 24217 28
19374 24216 24218 28
19375 24216 24219 28
19376 24216 24220 28
19377 24221 24222 28
19378 24221 24223 28
19379 24221 24224 28
19380 24221 24225 28
19381 24226 24227 28
19382 24226 24228 28
19383 24226 24229 28
19384 24226 24230 28
19385 24231 24232 28
19386 24231 24233 28
19387 24231 24234 28
19388 24231 24235 28
19389 24236 24237 28
19390 24236 24238 28
19391 24236 24239 28
19392 24236 24240 28
19393 24241 24242 28
19394 24241 24243 28
19395 24241 24244 28
19396 24241 24245 28
19397 24246 24247 28
19398 24246 24248 28
19399 24246 24249 28
19400 24246 24250 28
19401 24251 24252 28
19402 24251 24253 28
19403 24251 24254 28
19404 24251 24255 28
19405 24256 24257 28
19406 24256 24258 28
19407 24256 24259 28
19408 24256 24260 28
19409 24261 24262 28
19410 24261 24263 28
19411 24261 24264 28
19412 24261 24265 28
19413 24266 24267 28
19414 24266 24268 28
19415 24266 24269 28
19416 24266 24270 28
19417 24271 24272 28
19418 24271 24273 28
19419 24271 24274 28
19420 24271 24275 28
19421 24276 24277 28
19422 24276 24278 28
19423 24276 24279 28
19424 24276 24280 28
19425 24281 24282 28
19426 24281 24283 28
19427 24281 24284 28
19428 24281 24285 28
19429 24286 24287 28
19430 24286 24288 28
19431 24286 24289 28
19432 24286 24290 28
19433 24291 24292 28
19434 24291 24293 28
19435 24291 24294 28
19436 24291 24295 28
19437 24296 24297 28
19438 24296 24298 28
19439 24296 24299 28
19440 24296 24300 28
19441 24301 24302 28
19442 24301 24303 28
19443 24301 24304 28
19444 24301 24305 28
19445 24306 24307 28
19446 24306 24308 28
19447 24306 24309 28
19448 24306 24310 28
19449 24311 24312 28
19450 24311 24313 28
19451 24311 24314 28
19452 24311 24315 28
19453 24316 24317 28
19454 24316 24318 28
19455 24316 24319 28
19456 24316 24320 28
19457 24321 24322 28
19458 24321 24323 28
19459 24321 24324 28
19460 24321 24325 28
19461 24326 24327 28
19462 24326 24328 28
19463 24326 24329 28
19464 24326 24330 28
19465 24331 24332 28
19466 24331 24333 28
19467 24331 24334 28
19468 24331 24335 28
19469 24336 24337 28
19470 24336 24338 28
19471 24336 24339 28
19472 24336 24340 28
19473 24341 24342 28
19474 24341 24343 28
19475 24341 24344 28
19476 24341 24345 28
19477 24346 24347 28
19478 24346 24348 28
19479 24346 24349 28
19480 24346 24350 28
19481 24351 24352 28
19482 24351 24353 28
19483 24351 24354 28
19484 24351 24355 28
19485 24356 24357 28
19486 24356 24358 28
19487 24356 24359 28
19488 24356 24360 28
19489 24361 24362 28
19490 24361 24363 28
19491 24361 24364 28
19492 24361 24365 28
19493 24366 24367 28
19494 24366 24368 28
19495 24366 24369 28
19496 24366 24370 28
19497 24371 24372 28
19498 24371 24373 28
19499 24371 24374 28
19500 24371 24375 28
19501 24376 24377 28
19502 24376 24378 28
19503 24376 24379 28
19504 24376 24380 28
19505 24381 24382 28
19506 24381 24383 28
19507 24381 24384 28
19508 24381 24385 28
19509 24386 24387 28
19510 24386 24388 28
19511 24386 24389 28
19512 24386 24390 28
19513 24391 24392 28
19514 24391 24393 28
19515 24391 24394 28
19516 24391 24395 28
19517 24396 24397 28
19518 24396 24398 28
19519 24396 24399 28
19520 24396 24400 28
19521 24401 24402 28
19522 24401 24403 28
19523 24401 24404 28
19524 24401 24405 28
19525 24406 24407 28
19526 24406 24408 28
19527 24406 24409 28
19528 24406 24410 28
19529 24411 24412 28
19530 24411 24413 28
19531 24411 24414 28
19532 24411 24415 28
19533 24416 24417 28
19534 24416 24418 28
19535 24416 24419 28
19536 24416 24420 28
19537 24421 24422 28
19538 24421 24423 28
19539 24421 24424 28
19540 24421 24425 28
19541 24426 24427 28
19542 24426 24428 28
19543 24426 24429 28
19544 24426 24430 28
19545 24431 24432 28
19546 24431 24433 28
19547 24431 24434 28
19548 24431 24435 28
19549 24436 24437 28
19550 24436 24438 28
19551 24436 24439 28
19552 24436 24440 28
19553 24441 24442 28
19554 24441 24443 28
19555 24441 24444 28
19556 24441 24445 28
19557 24446 24447 28
19558 24446 24448 28
19559 24446 24449 28
19560 24446 24450 28
19561 24451 24452 28
19562 24451 24453 28
19563 24451 24454 28
19564 24451 24455 28
19565 24456 24457 28
19566 24456 24458 28
19567 24456 24459 28
19568 24456 24460 28
19569 24461 24462 28
19570 24461 24463 28
19571 24461 24464 28
19572 24461 24465 28
19573 24466 24467 28
19574 24466 24468 28
19575 24466 24469 28
19576 24466 24470 28
19577 24471 24472 28
19578 24471 24473 28
19579 24471 24474 28
19580 24471 24475 28
19581 24476 24477 28
19582 24476 24478 28
19583 24476 24479 28
19584 24476 24480 28
19585 24481 24482 28
19586 24481 24483 28
19587 24481 24484 28
19588 24481 24485 28
19589 24486 24487 28
19590 24486 24488 28
19591 24486 24489 28
19592 24486 24490 28
19593 24491 24492 28
19594 24491 24493 28
19595 24491 24494 28
19596 24491 24495 28
19597 24496 24497 28
19598 24496 24498 28
19599 24496 24499 28
19600 24496 24500 28
19601 24501 24502 28
19602 24501 24503 28
19603 24501 24504 28
19604 24501 24505 28
19605 24506 24507 28
19606 24506 24508 28
19607 24506 24509 28
19608 24506 24510 28
19609 24511 24512 28
19610 24511 24513 28
19611 24511 24514 28
19612 24511 24515 28
19613 24516 24517 28
19614 24516 24518 28
19615 24516 24519 28
19616 24516 24520 28
19617 24521 24522 28
19618 24521 24523 28
19619 24521 24524 28
19620 24521 24525 28
19621 24526 24527 28
19622 24526 24528 28
19623 24526 24529 28
19624 24526 24530 28
19625 24531 24532 28
19626 24531 24533 28
19627 24531 24534 28
19628 24531 24535 28
19629 24536 24537 28
19630 24536 24538 28
19631 24536 24539 28
19632 24536 24540 28
19633 24541 24542 28
19634 24541 24543 28
19635 24541 24544 28
19636 24541 24545 28
19637 24546 24547 28
19638 24546 24548 28
19639 24546 24549 28
19640 24546 24550 28
19641 24551 24552 28
19642 24551 24553 28
19643 24551 24554 28
19644 24551 24555 28
19645 24556 24557 28
19646 24556 24558 28
19647 24556 24559 28
19648 24556 24560 28
19649 24561 24562 28
19650 24561 24563 28
19651 24561 24564 28
19652 24561 24565 28
19653 24566 24567 28
19654 24566 24568 28
19655 24566 24569 28
19656 24566 24570 28
19657 24571 24572 28
19658 24571 24573 28
19659 24571 24574 28
19660 24571 24575 28
19661 24576 24577 28
19662 24576 24578 28
19663 24576 24579 28
19664 24576 24580 28
19665 24581 24582 28
19666 24581 24583 28
19667 24581 24584 28
19668 24581 24585 28
19669 24586 24587 28
19670 24586 24588 28
19671 24586 24589 28
19672 24586 24590 28
19673 24591 24592 28
19674 24591 24593 28
19675 24591 24594 28
19676 24591 24595 28
19677 24596 24597 28
19678 24596 24598 28
19679 24596 24599 28
19680 24596 24600 28
19681 24601 24602 28
19682 24601 24603 28
19683 24601 24604 28
19684 24601 24605 28
19685 24606 24607 28
19686 24606 24608 28
19687 24606 24609 28
19688 24606 24610 28
19689 24611 24612 28
19690 24611 24613 28
19691 24611 24614 28
19692 24611 24615 28
19693 24616 24617 28
19694 24616 24618 28
19695 24616 24619 28
19696 24616 24620 28
19697 24621 24622 28
19698 24621 24623 28
19699 24621 24624 28
19700 24621 24625 28
19701 24626 24627 28
19702 24626 24628 28
19703 24626 24629 28
19704 24626 24630 28
19705 24631 24632 28
19706 24631 24633 28
19707 24631 24634 28
19708 24631 24635 28
19709 24636 24637 28
19710 24636 24638 28
19711 24636 24639 28
19712 24636 24640 28
19713 24641 24642 28
19714 24641 24643 28
19715 24641 24644 28
19716 24641 24645 28
19717 24646 24647 28
19718 24646 24648 28
19719 24646 24649 28
19720 24646 24650 28
19721 24651 24652 28
19722 24651 24653 28
19723 24651 24654 28
19724 24651 24655 28
19725 24656 24657 28
19726 24656 24658 28
19727 24656 24659 28
19728 24656 24660 28
19729 24661 24662 28
19730 24661 24663 28
19731 24661 24664 28
19732 24661 24665 28
19733 24666 24667 28
19734 24666 24668 28
19735 24666 24669 28
19736 24666 24670 28
19737 24671 24672 28
19738 24671 24673 28
19739 24671 24674 28
19740 24671 24675 28
19741 24676 24677 28
19742 24676 24678 28
19743 24676 24679 28
19744 24676 24680 28
19745 24681 24682 28
19746 24681 24683 28
19747 24681 24684 28
19748 24681 24685 28
19749 24686 24687 28
19750 24686 24688 28
19751 24686 24689 28
19752 24686 24690 28
19753 24691 24692 28
19754 24691 24693 28
19755 24691 24694 28
19756 24691 24695 28
19757 24696 24697 28
19758 24696 24698 28
19759 24696 24699 28
19760 24696 24700 28
19761 24701 24702 28
19762 24701 24703 28
19763 24701 24704 28
19764 24701 24705 28
19765 24706 24707 28
19766 24706 24708 28
19767 24706 24709 28
19768 24706 24710 28
19769 24711 24712 28
19770 24711 24713 28
19771 24711 24714 28
19772 24711 24715 28
19773 24716 24717 28
19774 24716 24718 28
19775 24716 24719 28
19776 24716 24720 28
19777 24721 24722 28
19778 24721 24723 28
19779 24721 24724 28
19780 24721 24725 28
19781 24726 24727 28
19782 24726 24728 28
19783 24726 24729 28
19784 24726 24730 28
19785 24731 24732 28
19786 24731 24733 28
19787 24731 24734 28
19788 24731 24735 28
19789 24736 24737 28
19790 24736 24738 28
19791 24736 24739 28
19792 24736 24740 28
19793 24741 24742 28
19794 24741 24743 28
19795 24741 24744 28
19796 24741 24745 28
19797 24746 24747 28
19798 24746 24748 28
19799 24746 24749 28
19800 24746 24750 28
19801 24751 24752 28
19802 24751 24753 28
19803 24751 24754 28
19804 24751 24755 28
19805 24756 24757 28
19806 24756 24758 28
19807 24756 24759 28
19808 24756 24760 28
19809 24761 24762 28
19810 24761 24763 28
19811 24761 24764 28
19812 24761 24765 28
19813 24766 24767 28
19814 24766 24768 28
19815 24766 24769 28
19816 24766 24770 28
19817 24771 24772 28
19818 24771 24773 28
19819 24771 24774 28
19820 24771 24775 28
19821 24776 24777 28
19822 24776 24778 28
19823 24776 24779 28
19824 24776 24780 28
19825 24781 24782 28
19826 24781 24783 28
19827 24781 24784 28
19828 24781 24785 28
19829 24786 24787 28
19830 24786 24788 28
19831 24786 24789 28
19832 24786 24790 28
19833 24791 24792 28
19834 24791 24793 28
19835 24791 24794 28
19836 24791 24795 28
19837 24796 24797 28
19838 24796 24798 28
19839 24796 24799 28
19840 24796 24800 28
19841 24801 24802 28
19842 24801 24803 28
19843 24801 24804 28
19844 24801 24805 28
19845 24806 24807 28
19846 24806 24808 28
19847 24806 24809 28
19848 24806 24810 28
19849 24811 24812 28
19850 24811 24813 28
19851 24811 24814 28
19852 24811 24815 28
19853 24816 24817 28
19854 24816 24818 28
19855 24816 24819 28
19856 24816 24820 28
19857 24821 24822 28
19858 24821 24823 28
19859 24821 24824 28
19860 24821 24825 28
19861 24826 24827 28
19862 24826 24828 28
19863 24826 24829 28
19864 24826 24830 28
19865 24831 24832 28
19866 24831 24833 28
19867 24831 24834 28
19868 24831 24835 28
19869 24836 24837 28
19870 24836 24838 28
19871 24836 24839 28
19872 24836 24840 28
19873 24841 24842 28
19874 24841 24843 28
19875 24841 24844 28
19876 24841 24845 28
19877 24846 24847 28
19878 24846 24848 28
19879 24846 24849 28
19880 24846 24850 28
19881 24851 24852 28
19882 24851 24853 28
19883 24851 24854 28
19884 24851 24855 28
19885 24856 24857 28
19886 24856 24858 28
19887 24856 24859 28
19888 24856 24860 28
19889 24861 24862 28
19890 24861 24863 28
19891 24861 24864 28
19892 24861 24865 28
19893 24866 24867 28
19894 24866 24868 28
19895 24866 24869 28
19896 24866 24870 28
19897 24871 24872 28
19898 24871 24873 28
19899 24871 24874 28
19900 24871 24875 28
19901 24876 24877 28
19902 24876 24878 28
19903 24876 24879 28
19904 24876 24880 28
19905 24881 24882 28
19906 24881 24883 28
19907 24881 24884 28
19908 24881 24885 28
19909 24886 24887 28
19910 24886 24888 28
19911 24886 24889 28
19912 24886 24890 28
19913 24891 24892 28
19914 24891 24893 28
19915 24891 24894 28
19916 24891 24895 28
19917 24896 24897 28
19918 24896 24898 28
19919 24896 24899 28
19920 24896 24900 28
19921 24901 24902 28
19922 24901 24903 28
19923 24901 24904 28
19924 24901 24905 28
19925 24906 24907 28
19926 24906 24908 28
19927 24906 24909 28
19928 24906 24910 28
19929 24911 24912 28
19930 24911 24913 28
19931 24911 24914 28
19932 24911 24915 28
19933 24916 24917 28
19934 24916 24918 28
19935 24916 24919 28
19936 24916 24920 28
19937 24921 24922 28
19938 24921 24923 28
19939 24921 24924 28
19940 24921 24925 28
19941 24926 24927 28
19942 24926 24928 28
19943 24926 24929 28
19944 24926 24930 28
19945 24931 24932 28
19946 24931 24933 28
19947 24931 24934 28
19948 24931 24935 28
19949 24936 24937 28
19950 24936 24938 28
19951 24936 24939 28
19952 24936 24940 28
19953 24941 24942 28
19954 24941 24943 28
19955 24941 24944 28
19956 24941 24945 28
19957 24946 24947 28
19958 24946 24948 28
19959 24946 24949 28
19960 24946 24950 28
19961 24951 24952 28
19962 24951 24953 28
19963 24951 24954 28
19964 24951 24955 28
19965 24956 24957 28
19966 24956 24958 28
19967 24956 24959 28
19968 24956 24960 28
19969 24961 24962 28
19970 24961 24963 28
19971 24961 24964 28
19972 24961 24965 28
19973 24966 24967 28
19974 24966 24968 28
19975 24966 24969 28
19976 24966 24970 28
19977 24971 24972 28
19978 24971 24973 28
19979 24971 24974 28
19980 24971 24975 28
19981 24976 24977 28
19982 24976 24978 28
19983 24976 24979 28
19984 24976 24980 28
19985 24981 24982 28
19986 24981 24983 28
19987 24981 24984 28
19988 24981 24985 28
19989 24986 24987 28
19990 24986 24988 28
19991 24986 24989 28
19992 24986 24990 28
19993 24991 24992 28
19994 24991 24993 28
19995 24991 24994 28
19996 24991 24995 28
19997 24996 24997 28
19998 24996 24998 28
19999 24996 24999 28
20000 24996 25000 28
20001 25001 25002 28
20002 25001 25003 28
20003 25001 25004 28
20004 25001 25005 28
20005 25006 25007 28
20006 25006 25008 28
20007 25006 25009 28
20008 25006 25010 28
20009 25011 25012 28
20010 25011 25013 28
20011 25011 25014 28
20012 25011 25015 28
20013 25016 25017 28
20014 25016 25018 28
20015 25016 25019 28
20016 25016 25020 28
20017 25021 25022 28
20018 25021 25023 28
20019 25021 25024 28
20020 25021 25025 28
20021 25026 25027 28
20022 25026 25028 28
20023 25026 25029 28
20024 25026 25030 28
20025 25031 25032 28
20026 25031 25033 28
20027 25031 25034 28
20028 25031 25035 28
20029 25036 25037 28
20030 25036 25038 28
20031 25036 25039 28
20032 25036 25040 28
20033 25041 25042 28
20034 25041 25043 28
20035 25041 25044 28
20036 25041 25045 28
20037 25046 25047 28
20038 25046 25048 28
20039 25046 25049 28
20040 25046 25050 28
20041 25051 25052 28
20042 25051 25053 28
20043 25051 25054 28
20044 25051 25055 28
20045 25056 25057 28
20046 25056 25058 28
20047 25056 25059 28
20048 25056 25060 28
20049 25061 25062 28
20050 25061 25063 28
20051 25061 25064 28
20052 25061 25065 28
20053 25066 25067 28
20054 25066 25068 28
20055 25066 25069 28
20056 25066 25070 28
20057 25071 25072 28
20058 25071 25073 28
20059 25071 25074 28
20060 25071 25075 28
20061 25076 25077 28
20062 25076 25078 28
20063 25076 25079 28
20064 25076 25080 28
20065 25081 25082 28
20066 25081 25083 28
20067 25081 25084 28
20068 25081 25085 28
20069 25086 25087 28
20070 25086 25088 28
20071 25086 25089 28
20072 25086 25090 28
20073 25091 25092 28
20074 25091 25093 28
20075 25091 25094 28
20076 25091 25095 28
20077 25096 25097 28
20078 25096 25098 28
20079 25096 25099 28
20080 25096 25100 28
20081 25101 25102 28
20082 25101 25103 28
20083 25101 25104 28
20084 25101 25105 28
20085 25106 25107 28
20086 25106 25108 28
20087 25106 25109 28
20088 25106 25110 28
20089 25111 25112 28
20090 25111 25113 28
20091 25111 25114 28
20092 25111 25115 28
20093 25116 25117 28
20094 25116 25118 28
20095 25116 25119 28
20096 25116 25120 28
20097 25121 25122 28
20098 25121 25123 28
20099 25121 25124 28
20100 25121 25125 28
20101 25126 25127 28
20102 25126 25128 28
20103 25126 25129 28
20104 25126 25130 28
20105 25131 25132 28
20106 25131 25133 28
20107 25131 25134 28
20108 25131 25135 28
20109 25136 25137 28
20110 25136 25138 28
20111 25136 25139 28
20112 25136 25140 28
20113 25141 25142 28
20114 25141 25143 28
20115 25141 25144 28
20116 25141 25145 28
20117 25146 25147 28
20118 25146 25148 28
20119 25146 25149 28
20120 25146 25150 28
20121 25151 25152 28
20122 25151 25153 28
20123 25151 25154 28
20124 25151 25155 28
20125 25156 25157 28
20126 25156 25158 28
20127 25156 25159 28
20128 25156 25160 28
20129 25161 25162 28
20130 25161 25163 28
20131 25161 25164 28
20132 25161 25165 28
20133 25166 25167 28
20134 25166 25168 28
20135 25166 25169 28
20136 25166 25170 28
20137 25171 25172 28
20138 25171 25173 28
20139 25171 25174 28
20140 25171 25175 28
20141 25176 25177 28
20142 25176 25178 28
20143 25176 25179 28
20144 25176 25180 28
20145 25181 25182 28
20146 25181 25183 28
20147 25181 25184 28
20148 25181 25185 28
20149 25186 25187 28
20150 25186 25188 28
20151 25186 25189 28
20152 25186 25190 28
20153 25191 25192 28
20154 25191 25193 28
20155 25191 25194 28
20156 25191 25195 28
20157 25196 25197 28
20158 25196 25198 28
20159 25196 25199 28
20160 25196 25200 28
20161 25201 25202 28
20162 25201 25203 28
20163 25201 25204 28
20164 25201 25205 28
20165 25206 25207 28
20166 25206 25208 28
20167 25206 25209 28
20168 25206 25210 28
20169 25211 25212 28
20170 25211 25213 28
20171 25211 25214 28
20172 25211 25215 28
20173 25216 25217 28
20174 25216 25218 28
20175 25216 25219 28
20176 25216 25220 28
20177 25221 25222 28
20178 25221 25223 28
20179 25221 25224 28
20180 25221 25225 28
20181 25226 25227 28
20182 25226 25228 28
20183 25226 25229 28
20184 25226 25230 28
20185 25231 25232 28
20186 25231 25233 28
20187 25231 25234 28
20188 25231 25235 28
20189 25236 25237 28
20190 25236 25238 28
20191 25236 25239 28
20192 25236 25240 28
20193 25241 25242 28
20194 25241 25243 28
20195 25241 25244 28
20196 25241 25245 28
20197 25246 25247 28
20198 25246 25248 28
20199 25246 25249 28
20200 25246 25250 28
20201 25251 25252 28
20202 25251 25253 28
20203 25251 25254 28
20204 25251 25255 28
20205 25256 25257 28
20206 25256 25258 28
20207 25256 25259 28
20208 25256 25260 28
20209 25261 25262 28
20210 25261 25263 28
20211 25261 25264 28
20212 25261 25265 28
20213 25266 25267 28
20214 25266 25268 28
20215 25266 25269 28
20216 25266 25270 28
20217 25271 25272 28
20218 25271 25273 28
20219 25271 25274 28
20220 25271 25275 28
20221 25276 25277 28
20222 25276 25278 28
20223 25276 25279 28
20224 25276 25280 28
20225 25281 25282 28
20226 25281 25283 28
20227 25281 25284 28
20228 25281 25285 28
20229 25286 25287 28
20230 25286 25288 28
20231 25286 25289 28
20232 25286 25290 28
20233 25291 25292 28
20234 25291 25293 28
20235 25291 25294 28
20236 25291 25295 28
20237 25296 25297 28
20238 25296 25298 28
20239 25296 25299 28
20240 25296 25300 28
20241 25301 25302 28
20242 25301 25303 28
20243 25301 25304 28
20244 25301 25305 28
20245 25306 25307 28
20246 25306 25308 28
20247 25306 25309 28
20248 25306 25310 28
20249 25311 25312 28
20250 25311 25313 28
20251 25311 25314 28
20252 25311 25315 28
20253 25316 25317 28
20254 25316 25318 28
20255 25316 25319 28
20256 25316 25320 28
20257 25321 25322 28
20258 25321 25323 28
20259 25321 25324 28
20260 25321 25325 28
20261 25326 25327 28
20262 25326 25328 28
20263 25326 25329 28
20264 25326 25330 28
20265 25331 25332 28
20266 25331 25333 28
20267 25331 25334 28
20268 25331 25335 28
20269 25336 25337 28
20270 25336 25338 28
20271 25336 25339 28
20272 25336 25340 28
20273 25341 25342 28
20274 25341 25343 28
20275 25341 25344 28
20276 25341 25345 28
20277 25346 25347 28
20278 25346 25348 28
20279 25346 25349 28
20280 25346 25350 28
20281 25351 25352 28
20282 25351 25353 28
20283 25351 25354 28
20284 25351 25355 28
20285 25356 25357 28
20286 25356 25358 28
20287 25356 25359 28
20288 25356 25360 28
20289 25361 25362 28
20290 25361 25363 28
20291 25361 25364 28
20292 25361 25365 28
20293 25366 25367 28
20294 25366 25368 28
20295 25366 25369 28
20296 25366 25370 28
20297 25371 25372 28
20298 25371 25373 28
20299 25371 25374 28
20300 25371 25375 28
20301 25376 25377 28
20302 25376 25378 28
20303 25376 25379 28
20304 25376 25380 28
20305 25381 25382 28
20306 25381 25383 28
20307 25381 25384 28
20308 25381 25385 28
20309 25386 25387 28
20310 25386 25388 28
20311 25386 25389 28
20312 25386 25390 28
20313 25391 25392 28
20314 25391 25393 28
20315 25391 25394 28
20316 25391 25395 28
20317 25396 25397 28
20318 25396 25398 28
20319 25396 25399 28
20320 25396 25400 28
20321 25401 25402 28
20322 25401 25403 28
20323 25401 25404 28
20324 25401 25405 28
20325 25406 25407 28
20326 25406 25408 28
20327 25406 25409 28
20328 25406 25410 28
20329 25411 25412 28
20330 25411 25413 28
20331 25411 25414 28
20332 25411 25415 28
20333 25416 25417 28
20334 25416 25418 28
20335 25416 25419 28
20336 25416 25420 28
20337 25421 25422 28
20338 25421 25423 28
20339 25421 25424 28
20340 25421 25425 28
20341 25426 25427 28
20342 25426 25428 28
20343 25426 25429 28
20344 25426 25430 28
20345 25431 25432 28
20346 25431 25433 28
20347 25431 25434 28
20348 25431 25435 28
20349 25436 25437 28
20350 25436 25438 28
20351 25436 25439 28
20352 25436 25440 28
20353 25441 25442 28
20354 25441 25443 28
20355 25441 25444 28
20356 25441 25445 28
20357 25446 25447 28
20358 25446 25448 28
20359 25446 25449 28
20360 25446 25450 28
20361 25451 25452 28
20362 25451 25453 28
20363 25451 25454 28
20364 25451 25455 28
20365 25456 25457 28
20366 25456 25458 28
20367 25456 25459 28
20368 25456 25460 28
20369 25461 25462 28
20370 25461 25463 28
20371 25461 25464 28
20372 25461 25465 28
20373 25466 25467 28
20374 25466 25468 28
20375 25466 25469 28
20376 25466 25470 28
20377 25471 25472 28
20378 25471 25473 28
20379 25471 25474 28
20380 25471 25475 28
20381 25476 25477 28
20382 25476 25478 28
20383 25476 25479 28
20384 25476 25480 28
20385 25481 25482 28
20386 25481 25483 28
20387 25481 25484 28
20388 25481 25485 28
20389 25486 25487 28
20390 25486 25488 28
20391 25486 25489 28
20392 25486 25490 28
20393 25491 25492 28
20394 25491 25493 28
20395 25491 25494 28
20396 25491 25495 28
20397 25496 25497 28
20398 25496 25498 28
20399 25496 25499 28
20400 25496 25500 28
20401 25501 25502 28
20402 25501 25503 28
20403 25501 25504 28
20404 25501 25505 28
20405 25506 25507 28
20406 25506 25508 28
20407 25506 25509 28
20408 25506 25510 28
20409 25511 25512 28
20410 25511 25513 28
20411 25511 25514 28
20412 25511 25515 28
20413 25516 25517 28
20414 25516 25518 28
20415 25516 25519 28
20416 25516 25520 28
20417 25521 25522 28
20418 25521 25523 28
20419 25521 25524 28
20420 25521 25525 28
20421 25526 25527 28
20422 25526 25528 28
20423 25526 25529 28
20424 25526 25530 28
20425 25531 25532 28
20426 25531 25533 28
20427 25531 25534 28
20428 25531 25535 28
20429 25536 25537 28
20430 25536 25538 28
20431 25536 25539 28
20432 25536 25540 28
20433 25541 25542 28
20434 25541 25543 28
20435 25541 25544 28
20436 25541 25545 28
20437 25546 25547 28
20438 25546 25548 28
20439 25546 25549 28
20440 25546 25550 28
20441 25551 25552 28
20442 25551 25553 28
20443 25551 25554 28
20444 25551 25555 28
20445 25556 25557 28
20446 25556 25558 28
20447 25556 25559 28
20448 25556 25560 28
20449 25561 25562 28
20450 25561 25563 28
20451 25561 25564 28
20452 25561 25565 28
20453 25566 25567 28
20454 25566 25568 28
20455 25566 25569 28
20456 25566 25570 28
20457 25571 25572 28
20458 25571 25573 28
20459 25571 25574 28
20460 25571 25575 28
20461 25576 25577 28
20462 25576 25578 28
20463 25576 25579 28
20464 25576 25580 28
20465 25581 25582 28
20466 25581 25583 28
20467 25581 25584 28
20468 25581 25585 28
20469 25586 25587 28
20470 25586 25588 28
20471 25586 25589 28
20472 25586 25590 28
20473 25591 25592 28
20474 25591 25593 28
20475 25591 25594 28
20476 25591 25595 28
20477 25596 25597 28
20478 25596 25598 28
20479 25596 25599 28
20480 25596 25600 28
20481 25601 25602 28
20482 25601 25603 28
20483 25601 25604 28
20484 25601 25605 28
20485 25606 25607 28
20486 25606 25608 28
20487 25606 25609 28
20488 25606 25610 28
20489 25611 25612 28
20490 25611 25613 28
20491 25611 25614 28
20492 25611 25615 28
20493 25616 25617 28
20494 25616 25618 28
20495 25616 25619 28
20496 25616 25620 28
20497 25621 25622 28
20498 25621 25623 28
20499 25621 25624 28
20500 25621 25625 28
20501 25626 25627 28
20502 25626 25628 28
20503 25626 25629 28
20504 25626 25630 28
20505 25631 25632 28
20506 25631 25633 28
20507 25631 25634 28
20508 25631 25635 28
20509 25636 25637 28
20510 25636 25638 28
20511 25636 25639 28
20512 25636 25640 28
20513 25641 25642 28
20514 25641 25643 28
20515 25641 25644 28
20516 25641 25645 28
20517 25646 25647 28
20518 25646 25648 28
20519 25646 25649 28
20520 25646 25650 28
20521 25651 25652 28
20522 25651 25653 28
20523 25651 25654 28
20524 25651 25655 28
20525 25656 25657 28
20526 25656 25658 28
20527 25656 25659 28
20528 25656 25660 28
20529 25661 25662 28
20530 25661 25663 28
20531 25661 25664 28
20532 25661 25665 28
20533 25666 25667 28
20534 25666 25668 28
20535 25666 25669 28
20536 25666 25670 28
20537 25671 25672 28
20538 25671 25673 28
20539 25671 25674 28
20540 25671 25675 28
20541 25676 25677 28
20542 25676 25678 28
20543 25676 25679 28
20544 25676 25680 28
20545 25681 25682 28
20546 25681 25683 28
20547 25681 25684 28
20548 25681 25685 28
20549 25686 25687 28
20550 25686 25688 28
20551 25686 25689 28
20552 25686 25690 28
20553 25691 25692 28
20554 25691 25693 28
20555 25691 25694 28
20556 25691 25695 28
20557 25696 25697 28
20558 25696 25698 28
20559 25696 25699 28
20560 25696 25700 28
20561 25701 25702 28
20562 25701 25703 28
20563 25701 25704 28
20564 25701 25705 28
20565 25706 25707 28
20566 25706 25708 28
20567 25706 25709 28
20568 25706 25710 28
20569 25711 25712 28
20570 25711 25713 28
20571 25711 25714 28
20572 25711 25715 28
20573 25716 25717 28
20574 25716 25718 28
20575 25716 25719 28
20576 25716 25720 28
20577 25721 25722 28
20578 25721 25723 28
20579 25721 25724 28
20580 25721 25725 28
20581 25726 25727 28
20582 25726 25728 28
20583 25726 25729 28
20584 25726 25730 28
20585 25731 25732 28
20586 25731 25733 28
20587 25731 25734 28
20588 25731 25735 28
20589 25736 25737 28
20590 25736 25738 28
20591 25736 25739 28
20592 25736 25740 28
20593 25741 25742 28
20594 25741 25743 28
20595 25741 25744 28
20596 25741 25745 28
20597 25746 25747 28
20598 25746 25748 28
20599 25746 25749 28
20600 25746 25750 28
20601 25751 25752 28
20602 25751 25753 28
20603 25751 25754 28
20604 25751 25755 28
20605 25756 25757 28
20606 25756 25758 28
20607 25756 25759 28
20608 25756 25760 28
20609 25761 25762 28
20610 25761 25763 28
20611 25761 25764 28
20612 25761 25765 28
20613 25766 25767 28
20614 25766 25768 28
20615 25766 25769 28
20616 25766 25770 28
20617 25771 25772 28
20618 25771 25773 28
20619 25771 25774 28
20620 25771 25775 28
20621 25776 25777 28
20622 25776 25778 28
20623 25776 25779 28
20624 25776 25780 28
20625 25781 25782 28
20626 25781 25783 28
20627 25781 25784 28
20628 25781 25785 28
20629 25786 25787 28
20630 25786 25788 28
20631 25786 25789 28
20632 25786 25790 28
20633 25791 25792 28
20634 25791 25793 28
20635 25791 25794 28
20636 25791 25795 28
20637 25796 25797 28
20638 25796 25798 28
20639 25796 25799 28
20640 25796 25800 28
20641 25801 25802 28
20642 25801 25803 28
20643 25801 25804 28
20644 25801 25805 28
20645 25806 25807 28
20646 25806 25808 28
20647 25806 25809 28
20648 25806 25810 28
20649 25811 25812 28
20650 25811 25813 28
20651 25811 25814 28
20652 25811 25815 28
20653 25816 25817 28
20654 25816 25818 28
20655 25816 25819 28
20656 25816 25820 28
20657 25821 25822 28
20658 25821 25823 28
20659 25821 25824 28
20660 25821 25825 28
20661 25826 25827 28
20662 25826 25828 28
20663 25826 25829 28
20664 25826 25830 28
20665 25831 25832 28
20666 25831 25833 28
20667 25831 25834 28
20668 25831 25835 28
20669 25836 25837 28
20670 25836 25838 28
20671 25836 25839 28
20672 25836 25840 28
20673 25841 25842 28
20674 25841 25843 28
20675 25841 25844 28
20676 25841 25845 28
20677 25846 25847 28
20678 25846 25848 28
20679 25846 25849 28
20680 25846 25850 28
20681 25851 25852 28
20682 25851 25853 28
20683 25851 25854 28
20684 25851 25855 28
20685 25856 25857 28
20686 25856 25858 28
20687 25856 25859 28
20688 25856 25860 28
20689 25861 25862 28
20690 25861 25863 28
20691 25861 25864 28
20692 25861 25865 28
20693 25866 25867 28
20694 25866 25868 28
20695 25866 25869 28
20696 25866 25870 28
20697 25871 25872 28
20698 25871 25873 28
20699 25871 25874 28
20700 25871 25875 28
20701 25876 25877 28
20702 25876 25878 28
20703 25876 25879 28
20704 25876 25880 28
20705 25881 25882 28
20706 25881 25883 28
20707 25881 25884 28
20708 25881 25885 28
20709 25886 25887 28
20710 25886 25888 28
20711 25886 25889 28
20712 25886 25890 28
20713 25891 25892 28
20714 25891 25893 28
20715 25891 25894 28
20716 25891 25895 28
20717 25896 25897 28
20718 25896 25898 28
20719 25896 25899 28
20720 25896 25900 28
20721 25901 25902 28
20722 25901 25903 28
20723 25901 25904 28
20724 25901 25905 28
20725 25906 25907 28
20726 25906 25908 28
20727 25906 25909 28
20728 25906 25910 28
20729 25911 25912 28
20730 25911 25913 28
20731 25911 25914 28
20732 25911 25915 28
20733 25916 25917 28
20734 25916 25918 28
20735 25916 25919 28
20736 25916 25920 28
20737 25921 25922 28
20738 25921 25923 28
20739 25921 25924 28
20740 25921 25925 28
20741 25926 25927 28
20742 25926 25928 28
20743 25926 25929 28
20744 25926 25930 28
20745 25931 25932 28
20746 25931 25933 28
20747 25931 25934 28
20748 25931 25935 28
20749 25936 25937 28
20750 25936 25938 28
20751 25936 25939 28
20752 25936 25940 28
20753 25941 25942 28
20754 25941 25943 28
20755 25941 25944 28
20756 25941 25945 28
20757 25946 25947 28
20758 25946 25948 28
20759 25946 25949 28
20760 25946 25950 28
20761 25951 25952 28
20762 25951 25953 28
20763 25951 25954 28
20764 25951 25955 28
20765 25956 25957 28
20766 25956 25958 28
20767 25956 25959 28
20768 25956 25960 28
20769 25961 25962 28
20770 25961 25963 28
20771 25961 25964 28
20772 25961 25965 28
20773 25966 25967 28
20774 25966 25968 28
20775 25966 25969 28
20776 25966 25970 28
20777 25971 25972 28
20778 25971 25973 28
20779 25971 25974 28
20780 25971 25975 28
20781 25976 25977 28
20782 25976 25978 28
20783 25976 25979 28
20784 25976 25980 28
20785 25981 25982 28
20786 25981 25983 28
20787 25981 25984 28
20788 25981 25985 28
20789 25986 25987 28
20790 25986 25988 28
20791 25986 25989 28
20792 25986 25990 28
20793 25991 25992 28
20794 25991 25993 28
20795 25991 25994 28
20796 25991 25995 28
20797 25996 25997 28
20798 25996 25998 28
20799 25996 25999 28
20800 25996 26000 28
20801 26001 26002 28
20802 26001 26003 28
20803 26001 26004 28
20804 26001 26005 28
20805 26006 26007 28
20806 26006 26008 28
20807 26006 26009 28
20808 26006 26010 28
20809 26011 26012 28
20810 26011 26013 28
20811 26011 26014 28
20812 26011 26015 28
20813 26016 26017 28
20814 26016 26018 28
20815 26016 26019 28
20816 26016 26020 28
20817 26021 26022 28
20818 26021 26023 28
20819 26021 26024 28
20820 26021 26025 28
20821 26026 26027 28
20822 26026 26028 28
20823 26026 26029 28
20824 26026 26030 28
20825 26031 26032 28
20826 26031 26033 28
20827 26031 26034 28
20828 26031 26035 28
20829 26036 26037 28
20830 26036 26038 28
20831 26036 26039 28
20832 26036 26040 28
20833 26041 26042 28
20834 26041 26043 28
20835 26041 26044 28
20836 26041 26045 28
20837 26046 26047 28
20838 26046 26048 28
20839 26046 26049 28
20840 26046 26050 28
20841 26051 26052 28
20842 26051 26053 28
20843 26051 26054 28
20844 26051 26055 28
20845 26056 26057 28
20846 26056 26058 28
20847 26056 26059 28
20848 26056 26060 28
20849 26061 26062 28
20850 26061 26063 28
20851 26061 26064 28
20852 26061 26065 28
20853 26066 26067 28
20854 26066 26068 28
20855 26066 26069 28
20856 26066 26070 28
20857 26071 26072 28
20858 26071 26073 28
20859 26071 26074 28
20860 26071 26075 28
20861 26076 26077 28
20862 26076 26078 28
20863 26076 26079 28
20864 26076 26080 28
20865 26081 26082 28
20866 26081 26083 28
20867 26081 26084 28
20868 26081 26085 28
20869 26086 26087 28
20870 26086 26088 28
20871 26086 26089 28
20872 26086 26090 28
20873 26091 26092 28
20874 26091 26093 28
20875 26091 26094 28
20876 26091 26095 28
20877 26096 26097 28
20878 26096 26098 28
20879 26096 26099 28
20880 26096 26100 28
20881 26101 26102 28
20882 26101 26103 28
20883 26101 26104 28
20884 26101 26105 28
20885 26106 26107 28
20886 26106 26108 28
20887 26106 26109 28
20888 26106 26110 28
20889 26111 26112 28
20890 26111 26113 28
20891 26111 26114 28
20892 26111 26115 28
20893 26116 26117 28
20894 26116 26118 28
20895 26116 26119 28
20896 26116 26120 28
20897 26121 26122 28
20898 26121 26123 28
20899 26121 26124 28
20900 26121 26125 28
20901 26126 26127 28
20902 26126 26128 28
20903 26126 26129 28
20904 26126 26130 28
20905 26131 26132 28
20906 26131 26133 28
20907 26131 26134 28
20908 26131 26135 28
20909 26136 26137 28
20910 26136 26138 28
20911 26136 26139 28
20912 26136 26140 28
20913 26141 26142 28
20914 26141 26143 28
20915 26141 26144 28
20916 26141 26145 28
20917 26146 26147 28
20918 26146 26148 28
20919 26146 26149 28
20920 26146 26150 28
20921 26151 26152 28
20922 26151 26153 28
20923 26151 26154 28
20924 26151 26155 28
20925 26156 26157 28
20926 26156 26158 28
20927 26156 26159 28
20928 26156 26160 28
20929 26161 26162 28
20930 26161 26163 28
20931 26161 26164 28
20932 26161 26165 28
20933 26166 26167 28
20934 26166 26168 28
20935 26166 26169 28
20936 26166 26170 28
20937 26171 26172 28
20938 26171 26173 28
20939 26171 26174 28
20940 26171 26175 28
20941 26176 26177 28
20942 26176 26178 28
20943 26176 26179 28
20944 26176 26180 28
20945 26181 26182 28
20946 26181 26183 28
20947 26181 26184 28
20948 26181 26185 28
20949 26186 26187 28
20950 26186 26188 28
20951 26186 26189 28
20952 26186 26190 28
20953 26191 26192 28
20954 26191 26193 28
20955 26191 26194 28
20956 26191 26195 28
20957 26196 26197 28
20958 26196 26198 28
20959 26196 26199 28
20960 26196 26200 28
20961 26201 26202 28
20962 26201 26203 28
20963 26201 26204 28
20964 26201 26205 28
20965 26206 26207 28
20966 26206 26208 28
20967 26206 26209 28
20968 26206 26210 28
20969 26211 26212 28
20970 26211 26213 28
20971 26211 26214 28
20972 26211 26215 28
20973 26216 26217 28
20974 26216 26218 28
20975 26216 26219 28
20976 26216 26220 28
20977 26221 26222 28
20978 26221 26223 28
20979 26221 26224 28
20980 26221 26225 28
20981 26226 26227 28
20982 26226 26228 28
20983 26226 26229 28
20984 26226 26230 28
20985 26231 26232 28
20986 26231 26233 28
20987 26231 26234 28
20988 26231 26235 28
20989 26236 26237 28
20990 26236 26238 28
20991 26236 26239 28
20992 26236 26240 28
20993 26241 26242 28
20994 26241 26243 28
20995 26241 26244 28
20996 26241 26245 28
20997 26246 26247 28
20998 26246 26248 28
20999 26246 26249 28
21000 26246 26250 28
21001 26251 26252 28
21002 26251 26253 28
21003 26251 26254 28
21004 26251 26255 28
21005 26256 26257 28
21006 26256 26258 28
21007 26256 26259 28
21008 26256 26260 28
21009 26261 26262 28
21010 26261 26263 28
21011 26261 26264 28
21012 26261 26265 28
21013 26266 26267 28
21014 26266 26268 28
21015 26266 26269 28
21016 26266 26270 28
21017 26271 26272 28
21018 26271 26273 28
21019 26271 26274 28
21020 26271 26275 28
21021 26276 26277 28
21022 26276 26278 28
21023 26276 26279 28
21024 26276 26280 28
21025 26281 26282 28
21026 26281 26283 28
21027 26281 26284 28
21028 26281 26285 28
21029 26286 26287 28
21030 26286 26288 28
21031 26286 26289 28
21032 26286 26290 28
21033 26291 26292 28
21034 26291 26293 28
21035 26291 26294 28
21036 26291 26295 28
21037 26296 26297 28
21038 26296 26298 28
21039 26296 26299 28
21040 26296 26300 28
21041 26301 26302 28
21042 26301 26303 28
21043 26301 26304 28
21044 26301 26305 28
21045 26306 26307 28
21046 26306 26308 28
21047 26306 26309 28
21048 26306 26310 28
21049 26311 26312 28
21050 26311 26313 28
21051 26311 26314 28
21052 26311 26315 28
21053 26316 26317 28
21054 26316 26318 28
21055 26316 26319 28
21056 26316 26320 28
21057 26321 26322 28
21058 26321 26323 28
21059 26321 26324 28
21060 26321 26325 28
21061 26326 26327 28
21062 26326 26328 28
21063 26326 26329 28
21064 26326 26330 28
21065 26331 26332 28
21066 26331 26333 28
21067 26331 26334 28
21068 26331 26335 28
21069 26336 26337 28
21070 26336 26338 28
21071 26336 26339 28
21072 26336 26340 28
21073 26341 26342 28
21074 26341 26343 28
21075 26341 26344 28
21076 26341 26345 28
21077 26346 26347 28
21078 26346 26348 28
21079 26346 26349 28
21080 26346 26350 28
21081 26351 26352 28
21082 26351 26353 28
21083 26351 26354 28
21084 26351 26355 28
21085 26356 26357 28
21086 26356 26358 28
21087 26356 26359 28
21088 26356 26360 28
21089 26361 26362 28
21090 26361 26363 28
21091 26361 26364 28
21092 26361 26365 28
21093 26366 26367 28
21094 26366 26368 28
21095 26366 26369 28
21096 26366 26370 28
21097 26371 26372 28
21098 26371 26373 28
21099 26371 26374 28
21100 26371 26375 28
21101 26376 26377 28
21102 26376 26378 28
21103 26376 26379 28
21104 26376 26380 28
21105 26381 26382 28
21106 26381 26383 28
21107 26381 26384 28
21108 26381 26385 28
21109 26386 26387 28
21110 26386 26388 28
21111 26386 26389 28
21112 26386 26390 28
21113 26391 26392 28
21114 26391 26393 28
21115 26391 26394 28
21116 26391 26395 28
21117 26396 26397 28
21118 26396 26398 28
21119 26396 26399 28
21120 26396 26400 28
21121 26401 26402 28
21122 26401 26403 28
21123 26401 26404 28
21124 26401 26405 28
21125 26406 26407 28
21126 26406 26408 28
21127 26406 26409 28
21128 26406 26410 28
21129 26411 26412 28
21130 26411 26413 28
21131 26411 26414 28
21132 26411 26415 28
21133 26416 26417 28
21134 26416 26418 28
21135 26416 26419 28
21136 26416 26420 28
21137 26421 26422 28
21138 26421 26423 28
21139 26421 26424 28
21140 26421 26425 28
21141 26426 26427 28
21142 26426 26428 28
21143 26426 26429 28
21144 26426 26430 28
21145 26431 26432 28
21146 26431 26433 28
21147 26431 26434 28
21148 26431 26435 28
21149 26436 26437 28
21150 26436 26438 28
21151 26436 26439 28
21152 26436 26440 28
21153 26441 26442 28
21154 26441 26443 28
21155 26441 26444 28
21156 26441 26445 28
21157 26446 26447 28
21158 26446 26448 28
21159 26446 26449 28
21160 26446 26450 28
21161 26451 26452 28
21162 26451 26453 28
21163 26451 26454 28
21164 26451 26455 28
21165 26456 26457 28
21166 26456 26458 28
21167 26456 26459 28
21168 26456 26460 28
21169 26461 26462 28
21170 26461 26463 28
21171 26461 26464 28
21172 26461 26465 28
21173 26466 26467 28
21174 26466 26468 28
21175 26466 26469 28
21176 26466 26470 28
21177 26471 26472 28
21178 26471 26473 28
21179 26471 26474 28
21180 26471 26475 28
21181 26476 26477 28
21182 26476 26478 28
21183 26476 26479 28
21184 26476 26480 28
21185 26481 26482 28
21186 26481 26483 28
21187 26481 26484 28
21188 26481 26485 28
21189 26486 26487 28
21190 26486 26488 28
21191 26486 26489 28
21192 26486 26490 28
21193 26491 26492 28
21194 26491 26493 28
21195 26491 26494 28
21196 26491 26495 28
21197 26496 26497 28
21198 26496 26498 28
21199 26496 26499 28
21200 26496 26500 28
21201 26501 26502 28
21202 26501 26503 28
21203 26501 26504 28
21204 26501 26505 28
21205 26506 26507 28
21206 26506 26508 28
21207 26506 26509 28
21208 26506 26510 28
21209 26511 26512 28
21210 26511 26513 28
21211 26511 26514 28
21212 26511 26515 28
21213 26516 26517 28
21214 26516 26518 28
21215 26516 26519 28
21216 26516 26520 28
21217 26521 26522 28
21218 26521 26523 28
21219 26521 26524 28
21220 26521 26525 28
21221 26526 26527 28
21222 26526 26528 28
21223 26526 26529 28
21224 26526 26530 28
21225 26531 26532 28
21226 26531 26533 28
21227 26531 26534 28
21228 26531 26535 28
21229 26536 26537 28
21230 26536 26538 28
21231 26536 26539 28
21232 26536 26540 28
21233 26541 26542 28
21234 26541 26543 28
21235 26541 26544 28
21236 26541 26545 28
21237 26546 26547 28
21238 26546 26548 28
21239 26546 26549 28
21240 26546 26550 28
21241 26551 26552 28
21242 26551 26553 28
21243 26551 26554 28
21244 26551 26555 28
21245 26556 26557 28
21246 26556 26558 28
21247 26556 26559 28
21248 26556 26560 28
21249 26561 26562 28
21250 26561 26563 28
21251 26561 26564 28
21252 26561 26565 28
21253 26566 26567 28
21254 26566 26568 28
21255 26566 26569 28
21256 26566 26570 28
21257 26571 26572 28
21258 26571 26573 28
21259 26571 26574 28
21260 26571 26575 28
21261 26576 26577 28
21262 26576 26578 28
21263 26576 26579 28
21264 26576 26580 28
21265 26581 26582 28
21266 26581 26583 28
21267 26581 26584 28
21268 26581 26585 28
21269 26586 26587 28
21270 26586 26588 28
21271 26586 26589 28
21272 26586 26590 28
21273 26591 26592 28
21274 26591 26593 28
21275 26591 26594 28
21276 26591 26595 28
21277 26596 26597 28
21278 26596 26598 28
21279 26596 26599 28
21280 26596 26600 28
21281 26601 26602 28
21282 26601 26603 28
21283 26601 26604 28
21284 26601 26605 28
21285 26606 26607 28
21286 26606 26608 28
21287 26606 26609 28
21288 26606 26610 28
21289 26611 26612 28
21290 26611 26613 28
21291 26611 26614 28
21292 26611 26615 28
21293 26616 26617 28
21294 26616 26618 28
21295 26616 26619 28
21296 26616 26620 28
21297 26621 26622 28
21298 26621 26623 28
21299 26621 26624 28
21300 26621 26625 28
21301 26626 26627 28
21302 26626 26628 28
21303 26626 26629 28
21304 26626 26630 28
21305 26631 26632 28
21306 26631 26633 28
21307 26631 26634 28
21308 26631 26635 28
21309 26636 26637 28
21310 26636 26638 28
21311 26636 26639 28
21312 26636 26640 28
21313 26641 26642 28
21314 26641 26643 28
21315 26641 26644 28
21316 26641 26645 28
21317 26646 26647 28
21318 26646 26648 28
21319 26646 26649 28
21320 26646 26650 28
21321 26651 26652 28
21322 26651 26653 28
21323 26651 26654 28
21324 26651 26655 28
21325 26656 26657 28
21326 26656 26658 28
21327 26656 26659 28
21328 26656 26660 28
21329 26661 26662 28
21330 26661 26663 28
21331 26661 26664 28
21332 26661 26665 28
21333 26666 26667 28
21334 26666 26668 28
21335 26666 26669 28
21336 26666 26670 28
21337 26671 26672 28
21338 26671 26673 28
21339 26671 26674 28
21340 26671 26675 28
21341 26676 26677 28
21342 26676 26678 28
21343 26676 26679 28
21344 26676 26680 28
21345 26681 26682 28
21346 26681 26683 28
21347 26681 26684 28
21348 26681 26685 28
21349 26686 26687 28
21350 26686 26688 28
21351 26686 26689 28
21352 26686 26690 28
21353 26691 26692 28
21354 26691 26693 28
21355 26691 26694 28
21356 26691 26695 28
21357 26696 26697 28
21358 26696 26698 28
21359 26696 26699 28
21360 26696 26700 28
21361 26701 26702 28
21362 26701 26703 28
21363 26701 26704 28
21364 26701 26705 28
21365 26706 26707 28
21366 26706 26708 28
21367 26706 26709 28
21368 26706 26710 28
21369 26711 26712 28
21370 26711 26713 28
21371 26711 26714 28
21372 26711 26715 28
21373 26716 26717 28
21374 26716 26718 28
21375 26716 26719 28
21376 26716 26720 28
21377 26721 26722 28
21378 26721 26723 28
21379 26721 26724 28
21380 26721 26725 28
21381 26726 26727 28
21382 26726 26728 28
21383 26726 26729 28
21384 26726 26730 28
21385 26731 26732 28
21386 26731 26733 28
21387 26731 26734 28
21388 26731 26735 28
21389 26736 26737 28
21390 26736 26738 28
21391 26736 26739 28
21392 26736 26740 28
21393 26741 26742 28
21394 26741 26743 28
21395 26741 26744 28
21396 26741 26745 28
21397 26746 26747 28
21398 26746 26748 28
21399 26746 26749 28
21400 26746 26750 28
21401 26751 26752 28
21402 26751 26753 28
21403 26751 26754 28
21404 26751 26755 28
21405 26756 26757 28
21406 26756 26758 28
21407 26756 26759 28
21408 26756 26760 28
21409 26761 26762 28
21410 26761 26763 28
21411 26761 26764 28
21412 26761 26765 28
21413 26766 26767 28
21414 26766 26768 28
21415 26766 26769 28
21416 26766 26770 28
21417 26771 26772 28
21418 26771 26773 28
21419 26771 26774 28
21420 26771 26775 28
21421 26776 26777 28
21422 26776 26778 28
21423 26776 26779 28
21424 26776 26780 28
21425 26781 26782 28
21426 26781 26783 28
21427 26781 26784 28
21428 26781 26785 28
21429 26786 26787 28
21430 26786 26788 28
21431 26786 26789 28
21432 26786 26790 28
21433 26791 26792 28
21434 26791 26793 28
21435 26791 26794 28
21436 26791 26795 28
21437 26796 26797 28
21438 26796 26798 28
21439 26796 26799 28
21440 26796 26800 28
21441 26801 26802 28
21442 26801 26803 28
21443 26801 26804 28
21444 26801 26805 28
21445 26806 26807 28
21446 26806 26808 28
21447 26806 26809 28
21448 26806 26810 28
21449 26811 26812 28
21450 26811 26813 28
21451 26811 26814 28
21452 26811 26815 28
21453 26816 26817 28
21454 26816 26818 28
21455 26816 26819 28
21456 26816 26820 28
21457 26821 26822 28
21458 26821 26823 28
21459 26821 26824 28
21460 26821 26825 28
21461 26826 26827 28
21462 26826 26828 28
21463 26826 26829 28
21464 26826 26830 28
21465 26831 26832 28
21466 26831 26833 28
21467 26831 26834 28
21468 26831 26835 28
21469 26836 26837 28
21470 26836 26838 28
21471 26836 26839 28
21472 26836 26840 28
21473 26841 26842 28
21474 26841 26843 28
21475 26841 26844 28
21476 26841 26845 28
21477 26846 26847 28
21478 26846 26848 28
21479 26846 26849 28
21480 26846 26850 28
21481 26851 26852 28
21482 26851 26853 28
21483 26851 26854 28
21484 26851 26855 28
21485 26856 26857 28
21486 26856 26858 28
21487 26856 26859 28
21488 26856 26860 28
21489 26861 26862 28
21490 26861 26863 28
21491 26861 26864 28
21492 26861 26865 28
21493 26866 26867 28
21494 26866 26868 28
21495 26866 26869 28
21496 26866 26870 28
21497 26871 26872 28
21498 26871 26873 28
21499 26871 26874 28
21500 26871 26875 28
21501 26876 26877 28
21502 26876 26878 28
21503 26876 26879 28
21504 26876 26880 28
21505 26881 26882 28
21506 26881 26883 28
21507 26881 26884 28
21508 26881 26885 28
21509 26886 26887 28
21510 26886 26888 28
21511 26886 26889 28
21512 26886 26890 28
21513 26891 26892 28
21514 26891 26893 28
21515 26891 26894 28
21516 26891 26895 28
21517 26896 26897 28
21518 26896 26898 28
21519 26896 26899 28
21520 26896 26900 28
21521 26901 26902 28
21522 26901 26903 28
21523 26901 26904 28
21524 26901 26905 28
21525 26906 26907 28
21526 26906 26908 28
21527 26906 26909 28
21528 26906 26910 28
21529 26911 26912 28
21530 26911 26913 28
21531 26911 26914 28
21532 26911 26915 28
21533 26916 26917 28
21534 26916 26918 28
21535 26916 26919 28
21536 26916 26920 28
21537 26921 26922 28
21538 26921 26923 28
21539 26921 26924 28
21540 26921 26925 28
21541 26926 26927 28
21542 26926 26928 28
21543 26926 26929 28
21544 26926 26930 28
21545 26931 26932 28
21546 26931 26933 28
21547 26931 26934 28
21548 26931 26935 28
21549 26936 26937 28
21550 26936 26938 28
21551 26936 26939 28
21552 26936 26940 28
21553 26941 26942 28
21554 26941 26943 28
21555 26941 26944 28
21556 26941 26945 28
21557 26946 26947 28
21558 26946 26948 28
21559 26946 26949 28
21560 26946 26950 28
21561 26951 26952 28
21562 26951 26953 28
21563 26951 26954 28
21564 26951 26955 28
21565 26956 26957 28
21566 26956 26958 28
21567 26956 26959 28
21568 26956 26960 28
21569 26961 26962 28
21570 26961 26963 28
21571 26961 26964 28
21572 26961 26965 28
21573 26966 26967 28
21574 26966 26968 28
21575 26966 26969 28
21576 26966 26970 28
21577 26971 26972 28
21578 26971 26973 28
21579 26971 26974 28
21580 26971 26975 28
21581 26976 26977 28
21582 26976 26978 28
21583 26976 26979 28
21584 26976 26980 28
21585 26981 26982 28
21586 26981 26983 28
21587 26981 26984 28
21588 26981 26985 28
21589 26986 26987 28
21590 26986 26988 28
21591 26986 26989 28
21592 26986 26990 28
21593 26991 26992 28
21594 26991 26993 28
21595 26991 26994 28
21596 26991 26995 28
21597 26996 26997 28
21598 26996 26998 28
21599 26996 26999 28
21600 26996 27000 28
21601 27001 27002 28
21602 27001 27003 28
21603 27001 27004 28
21604 27001 27005 28
21605 27006 27007 28
21606 27006 27008 28
21607 27006 27009 28
21608 27006 27010 28
21609 27011 27012 28
21610 27011 27013 28
21611 27011 27014 28
21612 27011 27015 28
21613 27016 27017 28
21614 27016 27018 28
21615 27016 27019 28
21616 27016 27020 28
21617 27021 27022 28
21618 27021 27023 28
21619 27021 27024 28
21620 27021 27025 28
21621 27026 27027 28
21622 27026 27028 28
21623 27026 27029 28
21624 27026 27030 28
21625 27031 27032 28
21626 27031 27033 28
21627 27031 27034 28
21628 27031 27035 28
21629 27036 27037 28
21630 27036 27038 28
21631 27036 27039 28
21632 27036 27040 28
21633 27041 27042 28
21634 27041 27043 28
21635 27041 27044 28
21636 27041 27045 28
21637 27046 27047 28
21638 27046 27048 28
21639 27046 27049 28
21640 27046 27050 28
21641 27051 27052 28
21642 27051 27053 28
21643 27051 27054 28
21644 27051 27055 28
21645 27056 27057 28
21646 27056 27058 28
21647 27056 27059 28
21648 27056 27060 28
21649 27061 27062 28
21650 27061 27063 28
21651 27061 27064 28
21652 27061 27065 28
21653 27066 27067 28
21654 27066 27068 28
21655 27066 27069 28
21656 27066 27070 28
21657 27071 27072 28
21658 27071 27073 28
21659 27071 27074 28
21660 27071 27075 28
21661 27076 27077 28
21662 27076 27078 28
21663 27076 27079 28
21664 27076 27080 28
21665 27081 27082 28
21666 27081 27083 28
21667 27081 27084 28
21668 27081 27085 28
21669 27086 27087 28
21670 27086 27088 28
21671 27086 27089 28
21672 27086 27090 28
21673 27091 27092 28
21674 27091 27093 28
21675 27091 27094 28
21676 27091 27095 28
21677 27096 27097 28
21678 27096 27098 28
21679 27096 27099 28
21680 27096 27100 28
21681 27101 27102 28
21682 27101 27103 28
21683 27101 27104 28
21684 27101 27105 28
21685 27106 27107 28
21686 27106 27108 28
21687 27106 27109 28
21688 27106 27110 28
21689 27111 27112 28
21690 27111 27113 28
21691 27111 27114 28
21692 27111 27115 28
21693 27116 27117 28
21694 27116 27118 28
21695 27116 27119 28
21696 27116 27120 28
21697 27121 27122 28
21698 27121 27123 28
21699 27121 27124 28
21700 27121 27125 28
21701 27126 27127 28
21702 27126 27128 28
21703 27126 27129 28
21704 27126 27130 28
21705 27131 27132 28
21706 27131 27133 28
21707 27131 27134 28
21708 27131 27135 28
21709 27136 27137 28
21710 27136 27138 28
21711 27136 27139 28
21712 27136 27140 28
21713 27141 27142 28
21714 27141 27143 28
21715 27141 27144 28
21716 27141 27145 28
21717 27146 27147 28
21718 27146 27148 28
21719 27146 27149 28
21720 27146 27150 28
21721 27151 27152 28
21722 27151 27153 28
21723 27151 27154 28
21724 27151 27155 28
21725 27156 27157 28
21726 27156 27158 28
21727 27156 27159 28
21728 27156 27160 28
21729 27161 27162 28
21730 27161 27163 28
21731 27161 27164 28
21732 27161 27165 28
21733 27166 27167 28
21734 27166 27168 28
21735 27166 27169 28
21736 27166 27170 28
21737 27171 27172 28
21738 27171 27173 28
21739 27171 27174 28
21740 27171 27175 28
21741 27176 27177 28
21742 27176 27178 28
21743 27176 27179 28
21744 27176 27180 28
21745 27181 27182 28
21746 27181 27183 28
21747 27181 27184 28
21748 27181 27185 28
21749 27186 27187 28
21750 27186 27188 28
21751 27186 27189 28
21752 27186 27190 28
21753 27191 27192 28
21754 27191 27193 28
21755 27191 27194 28
21756 27191 27195 28
21757 27196 27197 28
21758 27196 27198 28
21759 27196 27199 28
21760 27196 27200 28
21761 27201 27202 28
21762 27201 27203 28
21763 27201 27204 28
21764 27201 27205 28
21765 27206 27207 28
21766 27206 27208 28
21767 27206 27209 28
21768 27206 27210 28
21769 27211 27212 28
21770 27211 27213 28
21771 27211 27214 28
21772 27211 27215 28
21773 27216 27217 28
21774 27216 27218 28
21775 27216 27219 28
21776 27216 27220 28
21777 27221 27222 28
21778 27221 27223 28
21779 27221 27224 28
21780 27221 27225 28
21781 27226 27227 28
21782 27226 27228 28
21783 27226 27229 28
21784 27226 27230 28
21785 27231 27232 28
21786 27231 27233 28
21787 27231 27234 28
21788 27231 27235 28
21789 27236 27237 28
21790 27236 27238 28
21791 27236 27239 28
21792 27236 27240 28
21793 27241 27242 28
21794 27241 27243 28
21795 27241 27244 28
21796 27241 27245 28
21797 27246 27247 28
21798 27246 27248 28
21799 27246 27249 28
21800 27246 27250 28
21801 27251 27252 28
21802 27251 27253 28
21803 27251 27254 28
21804 27251 27255 28
21805 27256 27257 28
21806 27256 27258 28
21807 27256 27259 28
21808 27256 27260 28
21809 27261 27262 28
21810 27261 27263 28
21811 27261 27264 28
21812 27261 27265 28
21813 27266 27267 28
21814 27266 27268 28
21815 27266 27269 28
21816 27266 27270 28
21817 27271 27272 28
21818 27271 27273 28
21819 27271 27274 28
21820 27271 27275 28
21821 27276 27277 28
21822 27276 27278 28
21823 27276 27279 28
21824 27276 27280 28
21825 27281 27282 28
21826 27281 27283 28
21827 27281 27284 28
21828 27281 27285 28
21829 27286 27287 28
21830 27286 27288 28
21831 27286 27289 28
21832 27286 27290 28
21833 27291 27292 28
21834 27291 27293 28
21835 27291 27294 28
21836 27291 27295 28
21837 27296 27297 28
21838 27296 27298 28
21839 27296 27299 28
21840 27296 27300 28
21841 27301 27302 28
21842 27301 27303 28
21843 27301 27304 28
21844 27301 27305 28
21845 27306 27307 28
21846 27306 27308 28
21847 27306 27309 28
21848 27306 27310 28
21849 27311 27312 28
21850 27311 27313 28
21851 27311 27314 28
21852 27311 27315 28
21853 27316 27317 28
21854 27316 27318 28
21855 27316 27319 28
21856 27316 27320 28
21857 27321 27322 28
21858 27321 27323 28
21859 27321 27324 28
21860 27321 27325 28
21861 27326 27327 28
21862 27326 27328 28
21863 27326 27329 28
21864 27326 27330 28
21865 27331 27332 28
21866 27331 27333 28
21867 27331 27334 28
21868 27331 27335 28
21869 27336 27337 28
21870 27336 27338 28
21871 27336 27339 28
21872 27336 27340 28
21873 27341 27342 28
21874 27341 27343 28
21875 27341 27344 28
21876 27341 27345 28
21877 27346 27347 28
21878 27346 27348 28
21879 27346 27349 28
21880 27346 27350 28
21881 27351 27352 28
21882 27351 27353 28
21883 27351 27354 28
21884 27351 27355 28
21885 27356 27357 28
21886 27356 27358 28
21887 27356 27359 28
21888 27356 27360 28
21889 27361 27362 28
21890 27361 27363 28
21891 27361 27364 28
21892 27361 27365 28
21893 27366 27367 28
21894 27366 27368 28
21895 27366 27369 28
21896 27366 27370 28
21897 27371 27372 28
21898 27371 27373 28
21899 27371 27374 28
21900 27371 27375 28
21901 27376 27377 28
21902 27376 27378 28
21903 27376 27379 28
21904 27376 27380 28
21905 27381 27382 28
21906 27381 27383 28
21907 27381 27384 28
21908 27381 27385 28
21909 27386 27387 28
21910 27386 27388 28
21911 27386 27389 28
21912 27386 27390 28
21913 27391 27392 28
21914 27391 27393 28
21915 27391 27394 28
21916 27391 27395 28
21917 27396 27397 28
21918 27396 27398 28
21919 27396 27399 28
21920 27396 27400 28
21921 27401 27402 28
21922 27401 27403 28
21923 27401 27404 28
21924 27401 27405 28
21925 27406 27407 28
21926 27406 27408 28
21927 27406 27409 28
21928 27406 27410 28
21929 27411 27412 28
21930 27411 27413 28
21931 27411 27414 28
21932 27411 27415 28
21933 27416 27417 28
21934 27416 27418 28
21935 27416 27419 28
21936 27416 27420 28
21937 27421 27422 28
21938 27421 27423 28
21939 27421 27424 28
21940 27421 27425 28
21941 27426 27427 28
21942 27426 27428 28
21943 27426 27429 28
21944 27426 27430 28
21945 27431 27432 28
21946 27431 27433 28
21947 27431 27434 28
21948 27431 27435 28
21949 27436 27437 28
21950 27436 27438 28
21951 27436 27439 28
21952 27436 27440 28
21953 27441 27442 28
21954 27441 27443 28
21955 27441 27444 28
21956 27441 27445 28
21957 27446 27447 28
21958 27446 27448 28
21959 27446 27449 28
21960 27446 27450 28
21961 27451 27452 28
21962 27451 27453 28
21963 27451 27454 28
21964 27451 27455 28
21965 27456 27457 28
21966 27456 27458 28
21967 27456 27459 28
21968 27456 27460 28
21969 27461 27462 28
21970 27461 27463 28
21971 27461 27464 28
21972 27461 27465 28
21973 27466 27467 28
21974 27466 27468 28
21975 27466 27469 28
21976 27466 27470 28
21977 27471 27472 28
21978 27471 27473 28
21979 27471 27474 28
21980 27471 27475 28
21981 27476 27477 28
21982 27476 27478 28
21983 27476 27479 28
21984 27476 27480 28
21985 27481 27482 28
21986 27481 27483 28
21987 27481 27484 28
21988 27481 27485 28
21989 27486 27487 28
21990 27486 27488 28
21991 27486 27489 28
21992 27486 27490 28
21993 27491 27492 28
21994 27491 27493 28
21995 27491 27494 28
21996 27491 27495 28
21997 27496 27497 28
21998 27496 27498 28
21999 27496 27499 28
22000 27496 27500 28
22001 27501 27502 28
22002 27501 27503 28
22003 27501 27504 28
22004 27501 27505 28
22005 27506 27507 28
22006 27506 27508 28
22007 27506 27509 28
22008 27506 27510 28
22009 27511 27512 28
22010 27511 27513 28
22011 27511 27514 28
22012 27511 27515 28
22013 27516 27517 28
22014 27516 27518 28
22015 27516 27519 28
22016 27516 27520 28
22017 27521 27522 28
22018 27521 27523 28
22019 27521 27524 28
22020 27521 27525 28
22021 27526 27527 28
22022 27526 27528 28
22023 27526 27529 28
22024 27526 27530 28
22025 27531 27532 28
22026 27531 27533 28
22027 27531 27534 28
22028 27531 27535 28
22029 27536 27537 28
22030 27536 27538 28
22031 27536 27539 28
22032 27536 27540 28
22033 27541 27542 28
22034 27541 27543 28
22035 27541 27544 28
22036 27541 27545 28
22037 27546 27547 28
22038 27546 27548 28
22039 27546 27549 28
22040 27546 27550 28
22041 27551 27552 28
22042 27551 27553 28
22043 27551 27554 28
22044 27551 27555 28
22045 27556 27557 28
22046 27556 27558 28
22047 27556 27559 28
22048 27556 27560 28
22049 27561 27562 28
22050 27561 27563 28
22051 27561 27564 28
22052 27561 27565 28
22053 27566 27567 28
22054 27566 27568 28
22055 27566 27569 28
22056 27566 27570 28
22057 27571 27572 28
22058 27571 27573 28
22059 27571 27574 28
22060 27571 27575 28
22061 27576 27577 28
22062 27576 27578 28
22063 27576 27579 28
22064 27576 27580 28
22065 27581 27582 28
22066 27581 27583 28
22067 27581 27584 28
22068 27581 27585 28
22069 27586 27587 28
22070 27586 27588 28
22071 27586 27589 28
22072 27586 27590 28
22073 27591 27592 28
22074 27591 27593 28
22075 27591 27594 28
22076 27591 27595 28
22077 27596 27597 28
22078 27596 27598 28
22079 27596 27599 28
22080 27596 27600 28
22081 27601 27602 28
22082 27601 27603 28
22083 27601 27604 28
22084 27601 27605 28
22085 27606 27607 28
22086 27606 27608 28
22087 27606 27609 28
22088 27606 27610 28
22089 27611 27612 28
22090 27611 27613 28
22091 27611 27614 28
22092 27611 27615 28
22093 27616 27617 28
22094 27616 27618 28
22095 27616 27619 28
22096 27616 27620 28
22097 27621 27622 28
22098 27621 27623 28
22099 27621 27624 28
22100 27621 27625 28
22101 27626 27627 28
22102 27626 27628 28
22103 27626 27629 28
22104 27626 27630 28
22105 27631 27632 28
22106 27631 27633 28
22107 27631 27634 28
22108 27631 27635 28
22109 27636 27637 28
22110 27636 27638 28
22111 27636 27639 28
22112 27636 27640 28
22113 27641 27642 28
22114 27641 27643 28
22115 27641 27644 28
22116 27641 27645 28
22117 27646 27647 28
22118 27646 27648 28
22119 27646 27649 28
22120 27646 27650 28
22121 27651 27652 28
22122 27651 27653 28
22123 27651 27654 28
22124 27651 27655 28
22125 27656 27657 28
22126 27656 27658 28
22127 27656 27659 28
22128 27656 27660 28
22129 27661 27662 28
22130 27661 27663 28
22131 27661 27664 28
22132 27661 27665 28
22133 27666 27667 28
22134 27666 27668 28
22135 27666 27669 28
22136 27666 27670 28
22137 27671 27672 28
22138 27671 27673 28
22139 27671 27674 28
22140 27671 27675 28
22141 27676 27677 28
22142 27676 27678 28
22143 27676 27679 28
22144 27676 27680 28
22145 27681 27682 28
22146 27681 27683 28
22147 27681 27684 28
22148 27681 27685 28
22149 27686 27687 28
22150 27686 27688 28
22151 27686 27689 28
22152 27686 27690 28
22153 27691 27692 28
22154 27691 27693 28
22155 27691 27694 28
22156 27691 27695 28
22157 27696 27697 28
22158 27696 27698 28
22159 27696 27699 28
22160 27696 27700 28
22161 27701 27702 28
22162 27701 27703 28
22163 27701 27704 28
22164 27701 27705 28
22165 27706 27707 28
22166 27706 27708 28
22167 27706 27709 28
22168 27706 27710 28
22169 27711 27712 28
22170 27711 27713 28
22171 27711 27714 28
22172 27711 27715 28
22173 27716 27717 28
22174 27716 27718 28
22175 27716 27719 28
22176 27716 27720 28
22177 27721 27722 28
22178 27721 27723 28
22179 27721 27724 28
22180 27721 27725 28
22181 27726 27727 28
22182 27726 27728 28
22183 27726 27729 28
22184 27726 27730 28
22185 27731 27732 28
22186 27731 27733 28
22187 27731 27734 28
22188 27731 27735 28
22189 27736 27737 28
22190 27736 27738 28
22191 27736 27739 28
22192 27736 27740 28
22193 27741 27742 28
22194 27741 27743 28
22195 27741 27744 28
22196 27741 27745 28
22197 27746 27747 28
22198 27746 27748 28
22199 27746 27749 28
22200 27746 27750 28
22201 27751 27752 28
22202 27751 27753 28
22203 27751 27754 28
22204 27751 27755 28
22205 27756 27757 28
22206 27756 27758 28
22207 27756 27759 28
22208 27756 27760 28
22209 27761 27762 28
22210 27761 27763 28
22211 27761 27764 28
22212 27761 27765 28
22213 27766 27767 28
22214 27766 27768 28
22215 27766 27769 28
22216 27766 27770 28
22217 27771 27772 28
22218 27771 27773 28
22219 27771 27774 28
22220 27771 27775 28
22221 27776 27777 28
22222 27776 27778 28
22223 27776 27779 28
22224 27776 27780 28
22225 27781 27782 28
22226 27781 27783 28
22227 27781 27784 28
22228 27781 27785 28
22229 27786 27787 28
22230 27786 27788 28
22231 27786 27789 28
22232 27786 27790 28
22233 27791 27792 28
22234 27791 27793 28
22235 27791 27794 28
22236 27791 27795 28
22237 27796 27797 28
22238 27796 27798 28
22239 27796 27799 28
22240 27796 27800 28
22241 27801 27802 28
22242 27801 27803 28
22243 27801 27804 28
22244 27801 27805 28
22245 27806 27807 28
22246 27806 27808 28
22247 27806 27809 28
22248 27806 27810 28
22249 27811 27812 28
22250 27811 27813 28
22251 27811 27814 28
22252 27811 27815 28
22253 27816 27817 28
22254 27816 27818 28
22255 27816 27819 28
22256 27816 27820 28
22257 27821 27822 28
22258 27821 27823 28
22259 27821 27824 28
22260 27821 27825 28
22261 27826 27827 28
22262 27826 27828 28
22263 27826 27829 28
22264 27826 27830 28
22265 27831 27832 28
22266 27831 27833 28
22267 27831 27834 28
22268 27831 27835 28
22269 27836 27837 28
22270 27836 27838 28
22271 27836 27839 28
22272 27836 27840 28
22273 27841 27842 28
22274 27841 27843 28
22275 27841 27844 28
22276 27841 27845 28
22277 27846 27847 28
22278 27846 27848 28
22279 27846 27849 28
22280 27846 27850 28
22281 27851 27852 28
22282 27851 27853 28
22283 27851 27854 28
22284 27851 27855 28
22285 27856 27857 28
22286 27856 27858 28
22287 27856 27859 28
22288 27856 27860 28
22289 27861 27862 28
22290 27861 27863 28
22291 27861 27864 28
22292 27861 27865 28
22293 27866 27867 28
22294 27866 27868 28
22295 27866 27869 28
22296 27866 27870 28
22297 27871 27872 28
22298 27871 27873 28
22299 27871 27874 28
22300 27871 27875 28
22301 27876 27877 28
22302 27876 27878 28
22303 27876 27879 28
22304 27876 27880 28
22305 27881 27882 28
22306 27881 27883 28
22307 27881 27884 28
22308 27881 27885 28
22309 27886 27887 28
22310 27886 27888 28
22311 27886 27889 28
22312 27886 27890 28
22313 27891 27892 28
22314 27891 27893 28
22315 27891 27894 28
22316 27891 27895 28
22317 27896 27897 28
22318 27896 27898 28
22319 27896 27899 28
22320 27896 27900 28
22321 27901 27902 28
22322 27901 27903 28
22323 27901 27904 28
22324 27901 27905 28
22325 27906 27907 28
22326 27906 27908 28
22327 27906 27909 28
22328 27906 27910 28
22329 27911 27912 28
22330 27911 27913 28
22331 27911 27914 28
22332 27911 27915 28
22333 27916 27917 28
22334 27916 27918 28
22335 27916 27919 28
22336 27916 27920 28
22337 27921 27922 28
22338 27921 27923 28
22339 27921 27924 28
22340 27921 27925 28
22341 27926 27927 28
22342 27926 27928 28
22343 27926 27929 28
22344 27926 27930 28
22345 27931 27932 28
22346 27931 27933 28
22347 27931 27934 28
22348 27931 27935 28
22349 27936 27937 28
22350 27936 27938 28
22351 27936 27939 28
22352 27936 27940 28
22353 27941 27942 28
22354 27941 27943 28
22355 27941 27944 28
22356 27941 27945 28
22357 27946 27947 28
22358 27946 27948 28
22359 27946 27949 28
22360 27946 27950 28
22361 27951 27952 28
22362 27951 27953 28
22363 27951 27954 28
22364 27951 27955 28
22365 27956 27957 28
22366 27956 27958 28
22367 27956 27959 28
22368 27956 27960 28
22369 27961 27962 28
22370 27961 27963 28
22371 27961 27964 28
22372 27961 27965 28
22373 27966 27967 28
22374 27966 27968 28
22375 27966 27969 28
22376 27966 27970 28
22377 27971 27972 28
22378 27971 27973 28
22379 27971 27974 28
22380 27971 27975 28
22381 27976 27977 28
22382 27976 27978 28
22383 27976 27979 28
22384 27976 27980 28
22385 27981 27982 28
22386 27981 27983 28
22387 27981 27984 28
22388 27981 27985 28
22389 27986 27987 28
22390 27986 27988 28
22391 27986 27989 28
22392 27986 27990 28
22393 27991 27992 28
22394 27991 27993 28
22395 27991 27994 28
22396 27991 27995 28
22397 27996 27997 28
22398 27996 27998 28
22399 27996 27999 28
22400 27996 28000 28
22401 28001 28002 28
22402 28001 28003 28
22403 28001 28004 28
22404 28001 28005 28
22405 28006 28007 28
22406 28006 28008 28
22407 28006 28009 28
22408 28006 28010 28
22409 28011 28012 28
22410 28011 28013 28
22411 28011 28014 28
22412 28011 28015 28
22413 28016 28017 28
22414 28016 28018 28
22415 28016 28019 28
22416 28016 28020 28
22417 28021 28022 28
22418 28021 28023 28
22419 28021 28024 28
22420 28021 28025 28
22421 28026 28027 28
22422 28026 28028 28
22423 28026 28029 28
22424 28026 28030 28
22425 28031 28032 28
22426 28031 28033 28
22427 28031 28034 28
22428 28031 28035 28
22429 28036 28037 28
22430 28036 28038 28
22431 28036 28039 28
22432 28036 28040 28
22433 28041 28042 28
22434 28041 28043 28
22435 28041 28044 28
22436 28041 28045 28
22437 28046 28047 28
22438 28046 28048 28
22439 28046 28049 28
22440 28046 28050 28
22441 28051 28052 28
22442 28051 28053 28
22443 28051 28054 28
22444 28051 28055 28
22445 28056 28057 28
22446 28056 28058 28
22447 28056 28059 28
22448 28056 28060 28
22449 28061 28062 28
22450 28061 28063 28
22451 28061 28064 28
22452 28061 28065 28
22453 28066 28067 28
22454 28066 28068 28
22455 28066 28069 28
22456 28066 28070 28
22457 28071 28072 28
22458 28071 28073 28
22459 28071 28074 28
22460 28071 28075 28
22461 28076 28077 28
22462 28076 28078 28
22463 28076 28079 28
22464 28076 28080 28
22465 28081 28082 28
22466 28081 28083 28
22467 28081 28084 28
22468 28081 28085 28
22469 28086 28087 28
22470 28086 28088 28
22471 28086 28089 28
22472 28086 28090 28
22473 28091 28092 28
22474 28091 28093 28
22475 28091 28094 28
22476 28091 28095 28
22477 28096 28097 28
22478 28096 28098 28
22479 28096 28099 28
22480 28096 28100 28
22481 28101 28102 28
22482 28101 28103 28
22483 28101 28104 28
22484 28101 28105 28
22485 28106 28107 28
22486 28106 28108 28
22487 28106 28109 28
22488 28106 28110 28
22489 28111 28112 28
22490 28111 28113 28
22491 28111 28114 28
22492 28111 28115 28
22493 28116 28117 28
22494 28116 28118 28
22495 28116 28119 28
22496 28116 28120 28
22497 28121 28122 28
22498 28121 28123 28
22499 28121 28124 28
22500 28121 28125 28
22501 28126 28127 28
22502 28126 28128 28
22503 28126 28129 28
22504 28126 28130 28
22505 28131 28132 28
22506 28131 28133 28
22507 28131 28134 28
22508 28131 28135 28
22509 28136 28137 28
22510 28136 28138 28
22511 28136 28139 28
22512 28136 28140 28
22513 28141 28142 28
22514 28141 28143 28
22515 28141 28144 28
22516 28141 28145 28
22517 28146 28147 28
22518 28146 28148 28
22519 28146 28149 28
22520 28146 28150 28
22521 28151 28152 28
22522 28151 28153 28
22523 28151 28154 28
22524 28151 28155 28
22525 28156 28157 28
22526 28156 28158 28
22527 28156 28159 28
22528 28156 28160 28
22529 28161 28162 28
22530 28161 28163 28
22531 28161 28164 28
22532 28161 28165 28
22533 28166 28167 28
22534 28166 28168 28
22535 28166 28169 28
22536 28166 28170 28
22537 28171 28172 28
22538 28171 28173 28
22539 28171 28174 28
22540 28171 28175 28
22541 28176 28177 28
22542 28176 28178 28
22543 28176 28179 28
22544 28176 28180 28
22545 28181 28182 28
22546 28181 28183 28
22547 28181 28184 28
22548 28181 28185 28
22549 28186 28187 28
22550 28186 28188 28
22551 28186 28189 28
22552 28186 28190 28
22553 28191 28192 28
22554 28191 28193 28
22555 28191 28194 28
22556 28191 28195 28
22557 28196 28197 28
22558 28196 28198 28
22559 28196 28199 28
22560 28196 28200 28
22561 28201 28202 28
22562 28201 28203 28
22563 28201 28204 28
22564 28201 28205 28
22565 28206 28207 28
22566 28206 28208 28
22567 28206 28209 28
22568 28206 28210 28
22569 28211 28212 28
22570 28211 28213 28
22571 28211 28214 28
22572 28211 28215 28
22573 28216 28217 28
22574 28216 28218 28
22575 28216 28219 28
22576 28216 28220 28
22577 28221 28222 28
22578 28221 28223 28
22579 28221 28224 28
22580 28221 28225 28
22581 28226 28227 28
22582 28226 28228 28
22583 28226 28229 28
22584 28226 28230 28
22585 28231 28232 28
22586 28231 28233 28
22587 28231 28234 28
22588 28231 28235 28
22589 28236 28237 28
22590 28236 28238 28
22591 28236 28239 28
22592 28236 28240 28
22593 28241 28242 28
22594 28241 28243 28
22595 28241 28244 28
22596 28241 28245 28
22597 28246 28247 28
22598 28246 28248 28
22599 28246 28249 28
22600 28246 28250 28
22601 28251 28252 28
22602 28251 28253 28
22603 28251 28254 28
22604 28251 28255 28
22605 28256 28257 28
22606 28256 28258 28
22607 28256 28259 28
22608 28256 28260 28
22609 28261 28262 28
22610 28261 28263 28
22611 28261 28264 28
22612 28261 28265 28
22613 28266 28267 28
22614 28266 28268 28
22615 28266 28269 28
22616 28266 28270 28
22617 28271 28272 28
22618 28271 28273 28
22619 28271 28274 28
22620 28271 28275 28
22621 28276 28277 28
22622 28276 28278 28
22623 28276 28279 28
22624 28276 28280 28
22625 28281 28282 28
22626 28281 28283 28
22627 28281 28284 28
22628 28281 28285 28
22629 28286 28287 28
22630 28286 28288 28
22631 28286 28289 28
22632 28286 28290 28
22633 28291 28292 28
22634 28291 28293 28
22635 28291 28294 28
22636 28291 28295 28
22637 28296 28297 28
22638 28296 28298 28
22639 28296 28299 28
22640 28296 28300 28
22641 28301 28302 28
22642 28301 28303 28
22643 28301 28304 28
22644 28301 28305 28
22645 28306 28307 28
22646 28306 28308 28
22647 28306 28309 28
22648 28306 28310 28
22649 28311 28312 28
22650 28311 28313 28
22651 28311 28314 28
22652 28311 28315 28
22653 28316 28317 28
22654 28316 28318 28
22655 28316 28319 28
22656 28316 28320 28
22657 28321 28322 28
22658 28321 28323 28
22659 28321 28324 28
22660 28321 28325 28
22661 28326 28327 28
22662 28326 28328 28
22663 28326 28329 28
22664 28326 28330 28
22665 28331 28332 28
22666 28331 28333 28
22667 28331 28334 28
22668 28331 28335 28
22669 28336 28337 28
22670 28336 28338 28
22671 28336 28339 28
22672 28336 28340 28
22673 28341 28342 28
22674 28341 28343 28
22675 28341 28344 28
22676 28341 28345 28
22677 28346 28347 28
22678 28346 28348 28
22679 28346 28349 28
22680 28346 28350 28
22681 28351 28352 28
22682 28351 28353 28
22683 28351 28354 28
22684 28351 28355 28
22685 28356 28357 28
22686 28356 28358 28
22687 28356 28359 28
22688 28356 28360 28
22689 28361 28362 28
22690 28361 28363 28
22691 28361 28364 28
22692 28361 28365 28
22693 28366 28367 28
22694 28366 28368 28
22695 28366 28369 28
22696 28366 28370 28
22697 28371 28372 28
22698 28371 28373 28
22699 28371 28374 28
22700 28371 28375 28
22701 28376 28377 28
22702 28376 28378 28
22703 28376 28379 28
22704 28376 28380 28
22705 28381 28382 28
22706 28381 28383 28
22707 28381 28384 28
22708 28381 28385 28
22709 28386 28387 28
22710 28386 28388 28
22711 28386 28389 28
22712 28386 28390 28
22713 28391 28392 28
22714 28391 28393 28
22715 28391 28394 28
22716 28391 28395 28
22717 28396 28397 28
22718 28396 28398 28
22719 28396 28399 28
22720 28396 28400 28
22721 28401 28402 28
22722 28401 28403 28
22723 28401 28404 28
22724 28401 28405 28
22725 28406 28407 28
22726 28406 28408 28
22727 28406 28409 28
22728 28406 28410 28
22729 28411 28412 28
22730 28411 28413 28
22731 28411 28414 28
22732 28411 28415 28
22733 28416 28417 28
22734 28416 28418 28
22735 28416 28419 28
22736 28416 28420 28
22737 28421 28422 28
22738 28421 28423 28
22739 28421 28424 28
22740 28421 28425 28
22741 28426 28427 28
22742 28426 28428 28
22743 28426 28429 28
22744 28426 28430 28
22745 28431 28432 28
22746 28431 28433 28
22747 28431 28434 28
22748 28431 28435 28
22749 28436 28437 28
22750 28436 28438 28
22751 28436 28439 28
22752 28436 28440 28
22753 28441 28442 28
22754 28441 28443 28
22755 28441 28444 28
22756 28441 28445 28
22757 28446 28447 28
22758 28446 28448 28
22759 28446 28449 28
22760 28446 28450 28
22761 28451 28452 28
22762 28451 28453 28
22763 28451 28454 28
22764 28451 28455 28
22765 28456 28457 28
22766 28456 28458 28
22767 28456 28459 28
22768 28456 28460 28
22769 28461 28462 28
22770 28461 28463 28
22771 28461 28464 28
22772 28461 28465 28
22773 28466 28467 28
22774 28466 28468 28
22775 28466 28469 28
22776 28466 28470 28
22777 28471 28472 28
22778 28471 28473 28
22779 28471 28474 28
22780 28471 28475 28
22781 28476 28477 28
22782 28476 28478 28
22783 28476 28479 28
22784 28476 28480 28
22785 28481 28482 28
22786 28481 28483 28
22787 28481 28484 28
22788 28481 28485 28
22789 28486 28487 28
22790 28486 28488 28
22791 28486 28489 28
22792 28486 28490 28
22793 28491 28492 28
22794 28491 28493 28
22795 28491 28494 28
22796 28491 28495 28
22797 28496 28497 28
22798 28496 28498 28
22799 28496 28499 28
22800 28496 28500 28
22801 28501 28502 28
22802 28501 28503 28
22803 28501 28504 28
22804 28501 28505 28
22805 28506 28507 28
22806 28506 28508 28
22807 28506 28509 28
22808 28506 28510 28
22809 28511 28512 28
22810 28511 28513 28
22811 28511 28514 28
22812 28511 28515 28
22813 28516 28517 28
22814 28516 28518 28
22815 28516 28519 28
22816 28516 28520 28
22817 28521 28522 28
22818 28521 28523 28
22819 28521 28524 28
22820 28521 28525 28
22821 28526 28527 28
22822 28526 28528 28
22823 28526 28529 28
22824 28526 28530 28
22825 28531 28532 28
22826 28531 28533 28
22827 28531 28534 28
22828 28531 28535 28
22829 28536 28537 28
22830 28536 28538 28
22831 28536 28539 28
22832 28536 28540 28
22833 28541 28542 28
22834 28541 28543 28
22835 28541 28544 28
22836 28541 28545 28
22837 28546 28547 28
22838 28546 28548 28
22839 28546 28549 28
22840 28546 28550 28
22841 28551 28552 28
22842 28551 28553 28
22843 28551 28554 28
22844 28551 28555 28
22845 28556 28557 28
22846 28556 28558 28
22847 28556 28559 28
22848 28556 28560 28
22849 28561 28562 28
22850 28561 28563 28
22851 28561 28564 28
22852 28561 28565 28
22853 28566 28567 28
22854 28566 28568 28
22855 28566 28569 28
22856 28566 28570 28
22857 28571 28572 28
22858 28571 28573 28
22859 28571 28574 28
22860 28571 28575 28
22861 28576 28577 28
22862 28576 28578 28
22863 28576 28579 28
22864 28576 28580 28
22865 28581 28582 28
22866 28581 28583 28
22867 28581 28584 28
22868 28581 28585 28
22869 28586 28587 28
22870 28586 28588 28
22871 28586 28589 28
22872 28586 28590 28
22873 28591 28592 28
22874 28591 28593 28
22875 28591 28594 28
22876 28591 28595 28
22877 28596 28597 28
22878 28596 28598 28
22879 28596 28599 28
22880 28596 28600 28
22881 28601 28602 28
22882 28601 28603 28
22883 28601 28604 28
22884 28601 28605 28
22885 28606 28607 28
22886 28606 28608 28
22887 28606 28609 28
22888 28606 28610 28
22889 28611 28612 28
22890 28611 28613 28
22891 28611 28614 28
22892 28611 28615 28
22893 28616 28617 28
22894 28616 28618 28
22895 28616 28619 28
22896 28616 28620 28
22897 28621 28622 28
22898 28621 28623 28
22899 28621 28624 28
22900 28621 28625 28
22901 28626 28627 28
22902 28626 28628 28
22903 28626 28629 28
22904 28626 28630 28
22905 28631 28632 28
22906 28631 28633 28
22907 28631 28634 28
22908 28631 28635 28
22909 28636 28637 28
22910 28636 28638 28
22911 28636 28639 28
22912 28636 28640 28
22913 28641 28642 28
22914 28641 28643 28
22915 28641 28644 28
22916 28641 28645 28
22917 28646 28647 28
22918 28646 28648 28
22919 28646 28649 28
22920 28646 28650 28
22921 28651 28652 28
22922 28651 28653 28
22923 28651 28654 28
22924 28651 28655 28
22925 28656 28657 28
22926 28656 28658 28
22927 28656 28659 28
22928 28656 28660 28
22929 28661 28662 28
22930 28661 28663 28
22931 28661 28664 28
22932 28661 28665 28
22933 28666 28667 28
22934 28666 28668 28
22935 28666 28669 28
22936 28666 28670 28
22937 28671 28672 28
22938 28671 28673 28
22939 28671 28674 28
22940 28671 28675 28
22941 28676 28677 28
22942 28676 28678 28
22943 28676 28679 28
22944 28676 28680 28
22945 28681 28682 28
22946 28681 28683 28
22947 28681 28684 28
22948 28681 28685 28
22949 28686 28687 28
22950 28686 28688 28
22951 28686 28689 28
22952 28686 28690 28
22953 28691 28692 28
22954 28691 28693 28
22955 28691 28694 28
22956 28691 28695 28
22957 28696 28697 28
22958 28696 28698 28
22959 28696 28699 28
22960 28696 28700 28
22961 28701 28702 28
22962 28701 28703 28
22963 28701 28704 28
22964 28701 28705 28
22965 28706 28707 28
22966 28706 28708 28
22967 28706 28709 28
22968 28706 28710 28
22969 28711 28712 28
22970 28711 28713 28
22971 28711 28714 28
22972 28711 28715 28
22973 28716 28717 28
22974 28716 28718 28
22975 28716 28719 28
22976 28716 28720 28
22977 28721 28722 28
22978 28721 28723 28
22979 28721 28724 28
22980 28721 28725 28
22981 28726 28727 28
22982 28726 28728 28
22983 28726 28729 28
22984 28726 28730 28
22985 28731 28732 28
22986 28731 28733 28
22987 28731 28734 28
22988 28731 28735 28
22989 28736 28737 28
22990 28736 28738 28
22991 28736 28739 28
22992 28736 28740 28
22993 28741 28742 28
22994 28741 28743 28
22995 28741 28744 28
22996 28741 28745 28
22997 28746 28747 28
22998 28746 28748 28
22999 28746 28749 28
23000 28746 28750 28
23001 28751 28752 28
23002 28751 28753 28
23003 28751 28754 28
23004 28751 28755 28
23005 28756 28757 28
23006 28756 28758 28
23007 28756 28759 28
23008 28756 28760 28
23009 28761 28762 28
23010 28761 28763 28
23011 28761 28764 28
23012 28761 28765 28
23013 28766 28767 28
23014 28766 28768 28
23015 28766 28769 28
23016 28766 28770 28
23017 28771 28772 28
23018 28771 28773 28
23019 28771 28774 28
23020 28771 28775 28
23021 28776 28777 28
23022 28776 28778 28
23023 28776 28779 28
23024 28776 28780 28
23025 28781 28782 28
23026 28781 28783 28
23027 28781 28784 28
23028 28781 28785 28
23029 28786 28787 28
23030 28786 28788 28
23031 28786 28789 28
23032 28786 28790 28
23033 28791 28792 28
23034 28791 28793 28
23035 28791 28794 28
23036 28791 28795 28
23037 28796 28797 28
23038 28796 28798 28
23039 28796 28799 28
23040 28796 28800 28
23041 28801 28802 28
23042 28801 28803 28
23043 28801 28804 28
23044 28801 28805 28
23045 28806 28807 28
23046 28806 28808 28
23047 28806 28809 28
23048 28806 28810 28
23049 28811 28812 28
23050 28811 28813 28
23051 28811 28814 28
23052 28811 28815 28
23053 28816 28817 28
23054 28816 28818 28
23055 28816 28819 28
23056 28816 28820 28
23057 28821 28822 28
23058 28821 28823 28
23059 28821 28824 28
23060 28821 28825 28
23061 28826 28827 28
23062 28826 28828 28
23063 28826 28829 28
23064 28826 28830 28
23065 28831 28832 28
23066 28831 28833 28
23067 28831 28834 28
23068 28831 28835 28
23069 28836 28837 28
23070 28836 28838 28
23071 28836 28839 28
23072 28836 28840 28
23073 28841 28842 28
23074 28841 28843 28
23075 28841 28844 28
23076 28841 28845 28
23077 28846 28847 28
23078 28846 28848 28
23079 28846 28849 28
23080 28846 28850 28
23081 28851 28852 28
23082 28851 28853 28
23083 28851 28854 28
23084 28851 28855 28
23085 28856 28857 28
23086 28856 28858 28
23087 28856 28859 28
23088 28856 28860 28
23089 28861 28862 28
23090 28861 28863 28
23091 28861 28864 28
23092 28861 28865 28
23093 28866 28867 28
23094 28866 28868 28
23095 28866 28869 28
23096 28866 28870 28
23097 28871 28872 28
23098 28871 28873 28
23099 28871 28874 28
23100 28871 28875 28
23101 28876 28877 28
23102 28876 28878 28
23103 28876 28879 28
23104 28876 28880 28
23105 28881 28882 28
23106 28881 28883 28
23107 28881 28884 28
23108 28881 28885 28
23109 28886 28887 28
23110 28886 28888 28
23111 28886 28889 28
23112 28886 28890 28
23113 28891 28892 28
23114 28891 28893 28
23115 28891 28894 28
23116 28891 28895 28
23117 28896 28897 28
23118 28896 28898 28
23119 28896 28899 28
23120 28896 28900 28
23121 28901 28902 28
23122 28901 28903 28
23123 28901 28904 28
23124 28901 28905 28
23125 28906 28907 28
23126 28906 28908 28
23127 28906 28909 28
23128 28906 28910 28
23129 28911 28912 28
23130 28911 28913 28
23131 28911 28914 28
23132 28911 28915 28
23133 28916 28917 28
23134 28916 28918 28
23135 28916 28919 28
23136 28916 28920 28
23137 28921 28922 28
23138 28921 28923 28
23139 28921 28924 28
23140 28921 28925 28
23141 28926 28927 28
23142 28926 28928 28
23143 28926 28929 28
23144 28926 28930 28
23145 28931 28932 28
23146 28931 28933 28
23147 28931 28934 28
23148 28931 28935 28
23149 28936 28937 28
23150 28936 28938 28
23151 28936 28939 28
23152 28936 28940 28
23153 28941 28942 28
23154 28941 28943 28
23155 28941 28944 28
23156 28941 28945 28
23157 28946 28947 28
23158 28946 28948 28
23159 28946 28949 28
23160 28946 28950 28
23161 28951 28952 28
23162 28951 28953 28
23163 28951 28954 28
23164 28951 28955 28
23165 28956 28957 28
23166 28956 28958 28
23167 28956 28959 28
23168 28956 28960 28
23169 28961 28962 28
23170 28961 28963 28
23171 28961 28964 28
23172 28961 28965 28
23173 28966 28967 28
23174 28966 28968 28
23175 28966 28969 28
23176 28966 28970 28
23177 28971 28972 28
23178 28971 28973 28
23179 28971 28974 28
23180 28971 28975 28
23181 28976 28977 28
23182 28976 28978 28
23183 28976 28979 28
23184 28976 28980 28
23185 28981 28982 28
23186 28981 28983 28
23187 28981 28984 28
23188 28981 28985 28
23189 28986 28987 28
23190 28986 28988 28
23191 28986 28989 28
23192 28986 28990 28
23193 28991 28992 28
23194 28991 28993 28
23195 28991 28994 28
23196 28991 28995 28
23197 28996 28997 28
23198 28996 28998 28
23199 28996 28999 28
23200 28996 29000 28
23201 29001 29002 28
23202 29001 29003 28
23203 29001 29004 28
23204 29001 29005 28
23205 29006 29007 28
23206 29006 29008 28
23207 29006 29009 28
23208 29006 29010 28
23209 29011 29012 28
23210 29011 29013 28
23211 29011 29014 28
23212 29011 29015 28
23213 29016 29017 28
23214 29016 29018 28
23215 29016 29019 28
23216 29016 29020 28
23217 29021 29022 28
23218 29021 29023 28
23219 29021 29024 28
23220 29021 29025 28
23221 29026 29027 28
23222 29026 29028 28
23223 29026 29029 28
23224 29026 29030 28
23225 29031 29032 28
23226 29031 29033 28
23227 29031 29034 28
23228 29031 29035 28
23229 29036 29037 28
23230 29036 29038 28
23231 29036 29039 28
23232 29036 29040 28
23233 29041 29042 28
23234 29041 29043 28
23235 29041 29044 28
23236 29041 29045 28
23237 29046 29047 28
23238 29046 29048 28
23239 29046 29049 28
23240 29046 29050 28
23241 29051 29052 28
23242 29051 29053 28
23243 29051 29054 28
23244 29051 29055 28
23245 29056 29057 28
23246 29056 29058 28
23247 29056 29059 28
23248 29056 29060 28
23249 29061 29062 28
23250 29061 29063 28
23251 29061 29064 28
23252 29061 29065 28
23253 29066 29067 28
23254 29066 29068 28
23255 29066 29069 28
23256 29066 29070 28
23257 29071 29072 28
23258 29071 29073 28
23259 29071 29074 28
23260 29071 29075 28
23261 29076 29077 28
23262 29076 29078 28
23263 29076 29079 28
23264 29076 29080 28
23265 29081 29082 28
23266 29081 29083 28
23267 29081 29084 28
23268 29081 29085 28
23269 29086 29087 28
23270 29086 29088 28
23271 29086 29089 28
23272 29086 29090 28
23273 29091 29092 28
23274 29091 29093 28
23275 29091 29094 28
23276 29091 29095 28
23277 29096 29097 28
23278 29096 29098 28
23279 29096 29099 28
23280 29096 29100 28
23281 29101 29102 28
23282 29101 29103 28
23283 29101 29104 28
23284 29101 29105 28
23285 29106 29107 28
23286 29106 29108 28
23287 29106 29109 28
23288 29106 29110 28
23289 29111 29112 28
23290 29111 29113 28
23291 29111 29114 28
23292 29111 29115 28
23293 29116 29117 28
23294 29116 29118 28
23295 29116 29119 28
23296 29116 29120 28
23297 29121 29122 28
23298 29121 29123 28
23299 29121 29124 28
23300 29121 29125 28
23301 29126 29127 28
23302 29126 29128 28
23303 29126 29129 28
23304 29126 29130 28
23305 29131 29132 28
23306 29131 29133 28
23307 29131 29134 28
23308 29131 29135 28
23309 29136 29137 28
23310 29136 29138 28
23311 29136 29139 28
23312 29136 29140 28
23313 29141 29142 28
23314 29141 29143 28
23315 29141 29144 28
23316 29141 29145 28
23317 29146 29147 28
23318 29146 29148 28
23319 29146 29149 28
23320 29146 29150 28
23321 29151 29152 28
23322 29151 29153 28
23323 29151 29154 28
23324 29151 29155 28
23325 29156 29157 28
23326 29156 29158 28
23327 29156 29159 28
23328 29156 29160 28
23329 29161 29162 28
23330 29161 29163 28
23331 29161 29164 28
23332 29161 29165 28
23333 29166 29167 28
23334 29166 29168 28
23335 29166 29169 28
23336 29166 29170 28
23337 29171 29172 28
23338 29171 29173 28
23339 29171 29174 28
23340 29171 29175 28
23341 29176 29177 28
23342 29176 29178 28
23343 29176 29179 28
23344 29176 29180 28
23345 29181 29182 28
23346 29181 29183 28
23347 29181 29184 28
23348 29181 29185 28
23349 29186 29187 28
23350 29186 29188 28
23351 29186 29189 28
23352 29186 29190 28
23353 29191 29192 28
23354 29191 29193 28
23355 29191 29194 28
23356 29191 29195 28
23357 29196 29197 28
23358 29196 29198 28
23359 29196 29199 28
23360 29196 29200 28
23361 29201 29202 28
23362 29201 29203 28
23363 29201 29204 28
23364 29201 29205 28
23365 29206 29207 28
23366 29206 29208 28
23367 29206 29209 28
23368 29206 29210 28
23369 29211 29212 28
23370 29211 29213 28
23371 29211 29214 28
23372 29211 29215 28
23373 29216 29217 28
23374 29216 29218 28
23375 29216 29219 28
23376 29216 29220 28
23377 29221 29222 28
23378 29221 29223 28
23379 29221 29224 28
23380 29221 29225 28
23381 29226 29227 28
23382 29226 29228 28
23383 29226 29229 28
23384 29226 29230 28
23385 29231 29232 28
23386 29231 29233 28
23387 29231 29234 28
23388 29231 29235 28
23389 29236 29237 28
23390 29236 29238 28
23391 29236 29239 28
23392 29236 29240 28
23393 29241 29242 28
23394 29241 29243 28
23395 29241 29244 28
23396 29241 29245 28
23397 29246 29247 28
23398 29246 29248 28
23399 29246 29249 28
23400 29246 29250 28
23401 29251 29252 28
23402 29251 29253 28
23403 29251 29254 28
23404 29251 29255 28
23405 29256 29257 28
23406 29256 29258 28
23407 29256 29259 28
23408 29256 29260 28
23409 29261 29262 28
23410 29261 29263 28
23411 29261 29264 28
23412 29261 29265 28
23413 29266 29267 28
23414 29266 29268 28
23415 29266 29269 28
23416 29266 29270 28
23417 29271 29272 28
23418 29271 29273 28
23419 29271 29274 28
23420 29271 29275 28
23421 29276 29277 28
23422 29276 29278 28
23423 29276 29279 28
23424 29276 29280 28
23425 29281 29282 28
23426 29281 29283 28
23427 29281 29284 28
23428 29281 29285 28
23429 29286 29287 28
23430 29286 29288 28
23431 29286 29289 28
23432 29286 29290 28
23433 29291 29292 28
23434 29291 29293 28
23435 29291 29294 28
23436 29291 29295 28
23437 29296 29297 28
23438 29296 29298 28
23439 29296 29299 28
23440 29296 29300 28
23441 29301 29302 28
23442 29301 29303 28
23443 29301 29304 28
23444 29301 29305 28
23445 29306 29307 28
23446 29306 29308 28
23447 29306 29309 28
23448 29306 29310 28
23449 29311 29312 28
23450 29311 29313 28
23451 29311 29314 28
23452 29311 29315 28
23453 29316 29317 28
23454 29316 29318 28
23455 29316 29319 28
23456 29316 29320 28
23457 29321 29322 28
23458 29321 29323 28
23459 29321 29324 28
23460 29321 29325 28
23461 29326 29327 28
23462 29326 29328 28
23463 29326 29329 28
23464 29326 29330 28
23465 29331 29332 28
23466 29331 29333 28
23467 29331 29334 28
23468 29331 29335 28
23469 29336 29337 28
23470 29336 29338 28
23471 29336 29339 28
23472 29336 29340 28
23473 29341 29342 28
23474 29341 29343 28
23475 29341 29344 28
23476 29341 29345 28
23477 29346 29347 28
23478 29346 29348 28
23479 29346 29349 28
23480 29346 29350 28
23481 29351 29352 28
23482 29351 29353 28
23483 29351 29354 28
23484 29351 29355 28
23485 29356 29357 28
23486 29356 29358 28
23487 29356 29359 28
23488 29356 29360 28
23489 29361 29362 28
23490 29361 29363 28
23491 29361 29364 28
23492 29361 29365 28
23493 29366 29367 28
23494 29366 29368 28
23495 29366 29369 28
23496 29366 29370 28
23497 29371 29372 28
23498 29371 29373 28
23499 29371 29374 28
23500 29371 29375 28
23501 29376 29377 28
23502 29376 29378 28
23503 29376 29379 28
23504 29376 29380 28
23505 29381 29382 28
23506 29381 29383 28
23507 29381 29384 28
23508 29381 29385 28
23509 29386 29387 28
23510 29386 29388 28
23511 29386 29389 28
23512 29386 29390 28
23513 29391 29392 28
23514 29391 29393 28
23515 29391 29394 28
23516 29391 29395 28
23517 29396 29397 28
23518 29396 29398 28
23519 29396 29399 28
23520 29396 29400 28
23521 29401 29402 28
23522 29401 29403 28
23523 29401 29404 28
23524 29401 29405 28
23525 29406 29407 28
23526 29406 29408 28
23527 29406 29409 28
23528 29406 29410 28
23529 29411 29412 28
23530 29411 29413 28
23531 29411 29414 28
23532 29411 29415 28
23533 29416 29417 28
23534 29416 29418 28
23535 29416 29419 28
23536 29416 29420 28
23537 29421 29422 28
23538 29421 29423 28
23539 29421 29424 28
23540 29421 29425 28
23541 29426 29427 28
23542 29426 29428 28
23543 29426 29429 28
23544 29426 29430 28
23545 29431 29432 28
23546 29431 29433 28
23547 29431 29434 28
23548 29431 29435 28
23549 29436 29437 28
23550 29436 29438 28
23551 29436 29439 28
23552 29436 29440 28
23553 29441 29442 28
23554 29441 29443 28
23555 29441 29444 28
23556 29441 29445 28
23557 29446 29447 28
23558 29446 29448 28
23559 29446 29449 28
23560 29446 29450 28
23561 29451 29452 28
23562 29451 29453 28
23563 29451 29454 28
23564 29451 29455 28
23565 29456 29457 28
23566 29456 29458 28
23567 29456 29459 28
23568 29456 29460 28
23569 29461 29462 28
23570 29461 29463 28
23571 29461 29464 28
23572 29461 29465 28
23573 29466 29467 28
23574 29466 29468 28
23575 29466 29469 28
23576 29466 29470 28
23577 29471 29472 28
23578 29471 29473 28
23579 29471 29474 28
23580 29471 29475 28
23581 29476 29477 28
23582 29476 29478 28
23583 29476 29479 28
23584 29476 29480 28
23585 29481 29482 28
23586 29481 29483 28
23587 29481 29484 28
23588 29481 29485 28
23589 29486 29487 28
23590 29486 29488 28
23591 29486 29489 28
23592 29486 29490 28
23593 29491 29492 28
23594 29491 29493 28
23595 29491 29494 28
23596 29491 29495 28
23597 29496 29497 28
23598 29496 29498 28
23599 29496 29499 28
23600 29496 29500 28
23601 29501 29502 28
23602 29501 29503 28
23603 29501 29504 28
23604 29501 29505 28
23605 29506 29507 28
23606 29506 29508 28
23607 29506 29509 28
23608 29506 29510 28
23609 29511 29512 28
23610 29511 29513 28
23611 29511 29514 28
23612 29511 29515 28
23613 29516 29517 28
23614 29516 29518 28
23615 29516 29519 28
23616 29516 29520 28
23617 29521 29522 28
23618 29521 29523 28
23619 29521 29524 28
23620 29521 29525 28
23621 29526 29527 28
23622 29526 29528 28
23623 29526 29529 28
23624 29526 29530 28
23625 29531 29532 28
23626 29531 29533 28
23627 29531 29534 28
23628 29531 29535 28
23629 29536 29537 28
23630 29536 29538 28
23631 29536 29539 28
23632 29536 29540 28
23633 29541 29542 28
23634 29541 29543 28
23635 29541 29544 28
23636 29541 29545 28
23637 29546 29547 28
23638 29546 29548 28
23639 29546 29549 28
23640 29546 29550 28
23641 29551 29552 28
23642 29551 29553 28
23643 29551 29554 28
23644 29551 29555 28
23645 29556 29557 28
23646 29556 29558 28
23647 29556 29559 28
23648 29556 29560 28
23649 29561 29562 28
23650 29561 29563 28
23651 29561 29564 28
23652 29561 29565 28
23653 29566 29567 28
23654 29566 29568 28
23655 29566 29569 28
23656 29566 29570 28
23657 29571 29572 28
23658 29571 29573 28
23659 29571 29574 28
23660 29571 29575 28
23661 29576 29577 28
23662 29576 29578 28
23663 29576 29579 28
23664 29576 29580 28
23665 29581 29582 28
23666 29581 29583 28
23667 29581 29584 28
23668 29581 29585 28
23669 29586 29587 28
23670 29586 29588 28
23671 29586 29589 28
23672 29586 29590 28
23673 29591 29592 28
23674 29591 29593 28
23675 29591 29594 28
23676 29591 29595 28
23677 29596 29597 28
23678 29596 29598 28
23679 29596 29599 28
23680 29596 29600 28
23681 29601 29602 28
23682 29601 29603 28
23683 29601 29604 28
23684 29601 29605 28
23685 29606 29607 28
23686 29606 29608 28
23687 29606 29609 28
23688 29606 29610 28
23689 29611 29612 28
23690 29611 29613 28
23691 29611 29614 28
23692 29611 29615 28
23693 29616 29617 28
23694 29616 29618 28
23695 29616 29619 28
23696 29616 29620 28
23697 29621 29622 28
23698 29621 29623 28
23699 29621 29624 28
23700 29621 29625 28
23701 29626 29627 28
23702 29626 29628 28
23703 29626 29629 28
23704 29626 29630 28
23705 29631 29632 28
23706 29631 29633 28
23707 29631 29634 28
23708 29631 29635 28
23709 29636 29637 28
23710 29636 29638 28
23711 29636 29639 28
23712 29636 29640 28
23713 29641 29642 28
23714 29641 29643 28
23715 29641 29644 28
23716 29641 29645 28
23717 29646 29647 28
23718 29646 29648 28
23719 29646 29649 28
23720 29646 29650 28
23721 29651 29652 28
23722 29651 29653 28
23723 29651 29654 28
23724 29651 29655 28
23725 29656 29657 28
23726 29656 29658 28
23727 29656 29659 28
23728 29656 29660 28
23729 29661 29662 28
23730 29661 29663 28
23731 29661 29664 28
23732 29661 29665 28
23733 29666 29667 28
23734 29666 29668 28
23735 29666 29669 28
23736 29666 29670 28
23737 29671 29672 28
23738 29671 29673 28
23739 29671 29674 28
23740 29671 29675 28
23741 29676 29677 28
23742 29676 29678 28
23743 29676 29679 28
23744 29676 29680 28
23745 29681 29682 28
23746 29681 29683 28
23747 29681 29684 28
23748 29681 29685 28
23749 29686 29687 28
23750 29686 29688 28
23751 29686 29689 28
23752 29686 29690 28
23753 29691 29692 28
23754 29691 29693 28
23755 29691 29694 28
23756 29691 29695 28
23757 29696 29697 28
23758 29696 29698 28
23759 29696 29699 28
23760 29696 29700 28
23761 29701 29702 28
23762 29701 29703 28
23763 29701 29704 28
23764 29701 29705 28
23765 29706 29707 28
23766 29706 29708 28
23767 29706 29709 28
23768 29706 29710 28
23769 29711 29712 28
23770 29711 29713 28
23771 29711 29714 28
23772 29711 29715 28
23773 29716 29717 28
23774 29716 29718 28
23775 29716 29719 28
23776 29716 29720 28
23777 29721 29722 28
23778 29721 29723 28
23779 29721 29724 28
23780 29721 29725 28
23781 29726 29727 28
23782 29726 29728 28
23783 29726 29729 28
23784 29726 29730 28
23785 29731 29732 28
23786 29731 29733 28
23787 29731 29734 28
23788 29731 29735 28
23789 29736 29737 28
23790 29736 29738 28
23791 29736 29739 28
23792 29736 29740 28
23793 29741 29742 28
23794 29741 29743 28
23795 29741 29744 28
23796 29741 29745 28
23797 29746 29747 28
23798 29746 29748 28
23799 29746 29749 28
23800 29746 29750 28
23801 29751 29752 28
23802 29751 29753 28
23803 29751 29754 28
23804 29751 29755 28
23805 29756 29757 28
23806 29756 29758 28
23807 29756 29759 28
23808 29756 29760 28
23809 29761 29762 28
23810 29761 29763 28
23811 29761 29764 28
23812 29761 29765 28
23813 29766 29767 28
23814 29766 29768 28
23815 29766 29769 28
23816 29766 29770 28
23817 29771 29772 28
23818 29771 29773 28
23819 29771 29774 28
23820 29771 29775 28
23821 29776 29777 28
23822 29776 29778 28
23823 29776 29779 28
23824 29776 29780 28
23825 29781 29782 28
23826 29781 29783 28
23827 29781 29784 28
23828 29781 29785 28
23829 29786 29787 28
23830 29786 29788 28
23831 29786 29789 28
23832 29786 29790 28
23833 29791 29792 28
23834 29791 29793 28
23835 29791 29794 28
23836 29791 29795 28
23837 29796 29797 28
23838 29796 29798 28
23839 29796 29799 28
23840 29796 29800 28
23841 29801 29802 28
23842 29801 29803 28
23843 29801 29804 28
23844 29801 29805 28
23845 29806 29807 28
23846 29806 29808 28
23847 29806 29809 28
23848 29806 29810 28
23849 29811 29812 28
23850 29811 29813 28
23851 29811 29814 28
23852 29811 29815 28
23853 29816 29817 28
23854 29816 29818 28
23855 29816 29819 28
23856 29816 29820 28
23857 29821 29822 28
23858 29821 29823 28
23859 29821 29824 28
23860 29821 29825 28
23861 29826 29827 28
23862 29826 29828 28
23863 29826 29829 28
23864 29826 29830 28
23865 29831 29832 28
23866 29831 29833 28
23867 29831 29834 28
23868 29831 29835 28
23869 29836 29837 28
23870 29836 29838 28
23871 29836 29839 28
23872 29836 29840 28
23873 29841 29842 28
23874 29841 29843 28
23875 29841 29844 28
23876 29841 29845 28
23877 29846 29847 28
23878 29846 29848 28
23879 29846 29849 28
23880 29846 29850 28
23881 29851 29852 28
23882 29851 29853 28
23883 29851 29854 28
23884 29851 29855 28
23885 29856 29857 28
23886 29856 29858 28
23887 29856 29859 28
23888 29856 29860 28
23889 29861 29862 28
23890 29861 29863 28
23891 29861 29864 28
23892 29861 29865 28
23893 29866 29867 28
23894 29866 29868 28
23895 29866 29869 28
23896 29866 29870 28
23897 29871 29872 28
23898 29871 29873 28
23899 29871 29874 28
23900 29871 29875 28
23901 29876 29877 28
23902 29876 29878 28
23903 29876 29879 28
23904 29876 29880 28
23905 29881 29882 28
23906 29881 29883 28
23907 29881 29884 28
23908 29881 29885 28
23909 29886 29887 28
23910 29886 29888 28
23911 29886 29889 28
23912 29886 29890 28
23913 29891 29892 28
23914 29891 29893 28
23915 29891 29894 28
23916 29891 29895 28
23917 29896 29897 28
23918 29896 29898 28
23919 29896 29899 28
23920 29896 29900 28
23921 29901 29902 28
23922 29901 29903 28
23923 29901 29904 28
23924 29901 29905 28
23925 29906 29907 28
23926 29906 29908 28
23927 29906 29909 28
23928 29906 29910 28
23929 29911 29912 28
23930 29911 29913 28
23931 29911 29914 28
23932 29911 29915 28
23933 29916 29917 28
23934 29916 29918 28
23935 29916 29919 28
23936 29916 29920 28
23937 29921 29922 28
23938 29921 29923 28
23939 29921 29924 28
23940 29921 29925 28
23941 29926 29927 28
23942 29926 29928 28
23943 29926 29929 28
23944 29926 29930 28
23945 29931 29932 28
23946 29931 29933 28
23947 29931 29934 28
23948 29931 29935 28
23949 29936 29937 28
23950 29936 29938 28
23951 29936 29939 28
23952 29936 29940 28
23953 29941 29942 28
23954 29941 29943 28
23955 29941 29944 28
23956 29941 29945 28
23957 29946 29947 28
23958 29946 29948 28
23959 29946 29949 28
23960 29946 29950 28
23961 29951 29952 28
23962 29951 29953 28
23963 29951 29954 28
23964 29951 29955 28
23965 29956 29957 28
23966 29956 29958 28
23967 29956 29959 28
23968 29956 29960 28
23969 29961 29962 28
23970 29961 29963 28
23971 29961 29964 28
23972 29961 29965 28
23973 29966 29967 28
23974 29966 29968 28
23975 29966 29969 28
23976 29966 29970 28
23977 29971 29972 28
23978 29971 29973 28
23979 29971 29974 28
23980 29971 29975 28
23981 29976 29977 28
23982 29976 29978 28
23983 29976 29979 28
23984 29976 29980 28
23985 29981 29982 28
23986 29981 29983 28
23987 29981 29984 28
23988 29981 29985 28
23989 29986 29987 28
23990 29986 29988 28
23991 29986 29989 28
23992 29986 29990 28
23993 29991 29992 28
23994 29991 29993 28
23995 29991 29994 28
23996 29991 29995 28
23997 29996 29997 28
23998 29996 29998 28
23999 29996 29999 28
24000 29996 30000 28
24001 30001 30002 28
24002 30001 30003 28
24003 30001 30004 28
24004 30001 30005 28
24005 30006 30007 28
24006 30006 30008 28
24007 30006 30009 28
24008 30006 30010 28
24009 30011 30012 28
24010 30011 30013 28
24011 30011 30014 28
24012 30011 30015 28
24013 30016 30017 28
24014 30016 30018 28
24015 30016 30019 28
24016 30016 30020 28
24017 30021 30022 28
24018 30021 30023 28
24019 30021 30024 28
24020 30021 30025 28
24021 30026 30027 28
24022 30026 30028 28
24023 30026 30029 28
24024 30026 30030 28
24025 30031 30032 28
24026 30031 30033 28
24027 30031 30034 28
24028 30031 30035 28
24029 30036 30037 28
24030 30036 30038 28
24031 30036 30039 28
24032 30036 30040 28
24033 30041 30042 28
24034 30041 30043 28
24035 30041 30044 28
24036 30041 30045 28
24037 30046 30047 28
24038 30046 30048 28
24039 30046 30049 28
24040 30046 30050 28
24041 30051 30052 28
24042 30051 30053 28
24043 30051 30054 28
24044 30051 30055 28
24045 30056 30057 28
24046 30056 30058 28
24047 30056 30059 28
24048 30056 30060 28
24049 30061 30062 28
24050 30061 30063 28
24051 30061 30064 28
24052 30061 30065 28
24053 30066 30067 28
24054 30066 30068 28
24055 30066 30069 28
24056 30066 30070 28
24057 30071 30072 28
24058 30071 30073 28
24059 30071 30074 28
24060 30071 30075 28
24061 30076 30077 28
24062 30076 30078 28
24063 30076 30079 28
24064 30076 30080 28
24065 30081 30082 28
24066 30081 30083 28
24067 30081 30084 28
24068 30081 30085 28
24069 30086 30087 28
24070 30086 30088 28
24071 30086 30089 28
24072 30086 30090 28
24073 30091 30092 28
24074 30091 30093 28
24075 30091 30094 28
24076 30091 30095 28
24077 30096 30097 28
24078 30096 30098 28
24079 30096 30099 28
24080 30096 30100 28
24081 30101 30102 28
24082 30101 30103 28
24083 30101 30104 28
24084 30101 30105 28
24085 30106 30107 28
24086 30106 30108 28
24087 30106 30109 28
24088 30106 30110 28
24089 30111 30112 28
24090 30111 30113 28
24091 30111 30114 28
24092 30111 30115 28
24093 30116 30117 28
24094 30116 30118 28
24095 30116 30119 28
24096 30116 30120 28
24097 30121 30122 28
24098 30121 30123 28
24099 30121 30124 28
24100 30121 30125 28
24101 30126 30127 28
24102 30126 30128 28
24103 30126 30129 28
24104 30126 30130 28
24105 30131 30132 28
24106 30131 30133 28
24107 30131 30134 28
24108 30131 30135 28
24109 30136 30137 28
24110 30136 30138 28
24111 30136 30139 28
24112 30136 30140 28
24113 30141 30142 28
24114 30141 30143 28
24115 30141 30144 28
24116 30141 30145 28
24117 30146 30147 28
24118 30146 30148 28
24119 30146 30149 28
24120 30146 30150 28
24121 30151 30152 28
24122 30151 30153 28
24123 30151 30154 28
24124 30151 30155 28
24125 30156 30157 28
24126 30156 30158 28
24127 30156 30159 28
24128 30156 30160 28
24129 30161 30162 28
24130 30161 30163 28
24131 30161 30164 28
24132 30161 30165 28
24133 30166 30167 28
24134 30166 30168 28
24135 30166 30169 28
24136 30166 30170 28
24137 30171 30172 28
24138 30171 30173 28
24139 30171 30174 28
24140 30171 30175 28
24141 30176 30177 28
24142 30176 30178 28
24143 30176 30179 28
24144 30176 30180 28
24145 30181 30182 28
24146 30181 30183 28
24147 30181 30184 28
24148 30181 30185 28
24149 30186 30187 28
24150 30186 30188 28
24151 30186 30189 28
24152 30186 30190 28
24153 30191 30192 28
24154 30191 30193 28
24155 30191 30194 28
24156 30191 30195 28
24157 30196 30197 28
24158 30196 30198 28
24159 30196 30199 28
24160 30196 30200 28
24161 30201 30202 28
24162 30201 30203 28
24163 30201 30204 28
24164 30201 30205 28
24165 30206 30207 28
24166 30206 30208 28
24167 30206 30209 28
24168 30206 30210 28
24169 30211 30212 28
24170 30211 30213 28
24171 30211 30214 28
24172 30211 30215 28
24173 30216 30217 28
24174 30216 30218 28
24175 30216 30219 28
24176 30216 30220 28
24177 30221 30222 28
24178 30221 30223 28
24179 30221 30224 28
24180 30221 30225 28
24181 30226 30227 28
24182 30226 30228 28
24183 30226 30229 28
24184 30226 30230 28
24185 30231 30232 28
24186 30231 30233 28
24187 30231 30234 28
24188 30231 30235 28
24189 30236 30237 28
24190 30236 30238 28
24191 30236 30239 28
24192 30236 30240 28
24193 30241 30242 28
24194 30241 30243 28
24195 30241 30244 28
24196 30241 30245 28
24197 30246 30247 28
24198 30246 30248 28
24199 30246 30249 28
24200 30246 30250 28
24201 30251 30252 28
24202 30251 30253 28
24203 30251 30254 28
24204 30251 30255 28
24205 30256 30257 28
24206 30256 30258 28
24207 30256 30259 28
24208 30256 30260 28
24209 30261 30262 28
24210 30261 30263 28
24211 30261 30264 28
24212 30261 30265 28
24213 30266 30267 28
24214 30266 30268 28
24215 30266 30269 28
24216 30266 30270 28
24217 30271 30272 28
24218 30271 30273 28
24219 30271 30274 28
24220 30271 30275 28
24221 30276 30277 28
24222 30276 30278 28
24223 30276 30279 28
24224 30276 30280 28
24225 30281 30282 28
24226 30281 30283 28
24227 30281 30284 28
24228 30281 30285 28
24229 30286 30287 28
24230 30286 30288 28
24231 30286 30289 28
24232 30286 30290 28
24233 30291 30292 28
24234 30291 30293 28
24235 30291 30294 28
24236 30291 30295 28
24237 30296 30297 28
24238 30296 30298 28
24239 30296 30299 28
24240 30296 30300 28
24241 30301 30302 28
24242 30301 30303 28
24243 30301 30304 28
24244 30301 30305 28
24245 30306 30307 28
24246 30306 30308 28
24247 30306 30309 28
24248 30306 30310 28
24249 30311 30312 28
24250 30311 30313 28
24251 30311 30314 28
24252 30311 30315 28
24253 30316 30317 28
24254 30316 30318 28
24255 30316 30319 28
24256 30316 30320 28
24257 30321 30322 28
24258 30321 30323 28
24259 30321 30324 28
24260 30321 30325 28
24261 30326 30327 28
24262 30326 30328 28
24263 30326 30329 28
24264 30326 30330 28
24265 30331 30332 28
24266 30331 30333 28
24267 30331 30334 28
24268 30331 30335 28
24269 30336 30337 28
24270 30336 30338 28
24271 30336 30339 28
24272 30336 30340 28
24273 30341 30342 28
24274 30341 30343 28
24275 30341 30344 28
24276 30341 30345 28
24277 30346 30347 28
24278 30346 30348 28
24279 30346 30349 28
24280 30346 30350 28
24281 30351 30352 28
24282 30351 30353 28
24283 30351 30354 28
24284 30351 30355 28
24285 30356 30357 28
24286 30356 30358 28
24287 30356 30359 28
24288 30356 30360 28
24289 30361 30362 28
24290 30361 30363 28
24291 30361 30364 28
24292 30361 30365 28
24293 30366 30367 28
24294 30366 30368 28
24295 30366 30369 28
24296 30366 30370 28
24297 30371 30372 28
24298 30371 30373 28
24299 30371 30374 28
24300 30371 30375 28
24301 30376 30377 28
24302 30376 30378 28
24303 30376 30379 28
24304 30376 30380 28
24305 30381 30382 28
24306 30381 30383 28
24307 30381 30384 28
24308 30381 30385 28
24309 30386 30387 28
24310 30386 30388 28
24311 30386 30389 28
24312 30386 30390 28
24313 30391 30392 28
24314 30391 30393 28
24315 30391 30394 28
24316 30391 30395 28
24317 30396 30397 28
24318 30396 30398 28
24319 30396 30399 28
24320 30396 30400 28
24321 30401 30402 28
24322 30401 30403 28
24323 30401 30404 28
24324 30401 30405 28
24325 30406 30407 28
24326 30406 30408 28
24327 30406 30409 28
24328 30406 30410 28
24329 30411 30412 28
24330 30411 30413 28
24331 30411 30414 28
24332 30411 30415 28
24333 30416 30417 28
24334 30416 30418 28
24335 30416 30419 28
24336 30416 30420 28
24337 30421 30422 28
24338 30421 30423 28
24339 30421 30424 28
24340 30421 30425 28
24341 30426 30427 28
24342 30426 30428 28
24343 30426 30429 28
24344 30426 30430 28
24345 30431 30432 28
24346 30431 30433 28
24347 30431 30434 28
24348 30431 30435 28
24349 30436 30437 28
24350 30436 30438 28
24351 30436 30439 28
24352 30436 30440 28
24353 30441 30442 28
24354 30441 30443 28
24355 30441 30444 28
24356 30441 30445 28
24357 30446 30447 28
24358 30446 30448 28
24359 30446 30449 28
24360 30446 30450 28
24361 30451 30452 28
24362 30451 30453 28
24363 30451 30454 28
24364 30451 30455 28
24365 30456 30457 28
24366 30456 30458 28
24367 30456 30459 28
24368 30456 30460 28
24369 30461 30462 28
24370 30461 30463 28
24371 30461 30464 28
24372 30461 30465 28
24373 30466 30467 28
24374 30466 30468 28
24375 30466 30469 28
24376 30466 30470 28
24377 30471 30472 28
24378 30471 30473 28
24379 30471 30474 28
24380 30471 30475 28
24381 30476 30477 28
24382 30476 30478 28
24383 30476 30479 28
24384 30476 30480 28
24385 30481 30482 28
24386 30481 30483 28
24387 30481 30484 28
24388 30481 30485 28
24389 30486 30487 28
24390 30486 30488 28
24391 30486 30489 28
24392 30486 30490 28
24393 30491 30492 28
24394 30491 30493 28
24395 30491 30494 28
24396 30491 30495 28
24397 30496 30497 28
24398 30496 30498 28
24399 30496 30499 28
24400 30496 30500 28
24401 30501 30502 28
24402 30501 30503 28
24403 30501 30504 28
24404 30501 30505 28
24405 30506 30507 28
24406 30506 30508 28
24407 30506 30509 28
24408 30506 30510 28
24409 30511 30512 28
24410 30511 30513 28
24411 30511 30514 28
24412 30511 30515 28
24413 30516 30517 28
24414 30516 30518 28
24415 30516 30519 28
24416 30516 30520 28
24417 30521 30522 28
24418 30521 30523 28
24419 30521 30524 28
24420 30521 30525 28
24421 30526 30527 28
24422 30526 30528 28
24423 30526 30529 28
24424 30526 30530 28
24425 30531 30532 28
24426 30531 30533 28
24427 30531 30534 28
24428 30531 30535 28
24429 30536 30537 28
24430 30536 30538 28
24431 30536 30539 28
24432 30536 30540 28
24433 30541 30542 28
24434 30541 30543 28
24435 30541 30544 28
24436 30541 30545 28
24437 30546 30547 28
24438 30546 30548 28
24439 30546 30549 28
24440 30546 30550 28
24441 30551 30552 28
24442 30551 30553 28
24443 30551 30554 28
24444 30551 30555 28
24445 30556 30557 28
24446 30556 30558 28
24447 30556 30559 28
24448 30556 30560 28
24449 30561 30562 28
24450 30561 30563 28
24451 30561 30564 28
24452 30561 30565 28
24453 30566 30567 28
24454 30566 30568 28
24455 30566 30569 28
24456 30566 30570 28
24457 30571 30572 28
24458 30571 30573 28
24459 30571 30574 28
24460 30571 30575 28
24461 30576 30577 28
24462 30576 30578 28
24463 30576 30579 28
24464 30576 30580 28
24465 30581 30582 28
24466 30581 30583 28
24467 30581 30584 28
24468 30581 30585 28
24469 30586 30587 28
24470 30586 30588 28
24471 30586 30589 28
24472 30586 30590 28
24473 30591 30592 28
24474 30591 30593 28
24475 30591 30594 28
24476 30591 30595 28
24477 30596 30597 28
24478 30596 30598 28
24479 30596 30599 28
24480 30596 30600 28
24481 30601 30602 28
24482 30601 30603 28
24483 30601 30604 28
24484 30601 30605 28
24485 30606 30607 28
24486 30606 30608 28
24487 30606 30609 28
24488 30606 30610 28
24489 30611 30612 28
24490 30611 30613 28
24491 30611 30614 28
24492 30611 30615 28
24493 30616 30617 28
24494 30616 30618 28
24495 30616 30619 28
24496 30616 30620 28
24497 30621 30622 28
24498 30621 30623 28
24499 30621 30624 28
24500 30621 30625 28
24501 30626 30627 28
24502 30626 30628 28
24503 30626 30629 28
24504 30626 30630 28
24505 30631 30632 28
24506 30631 30633 28
24507 30631 30634 28
24508 30631 30635 28
24509 30636 30637 28
24510 30636 30638 28
24511 30636 30639 28
24512 30636 30640 28
24513 30641 30642 28
24514 30641 30643 28
24515 30641 30644 28
24516 30641 30645 28
24517 30646 30647 28
24518 30646 30648 28
24519 30646 30649 28
24520 30646 30650 28
24521 30651 30652 28
24522 30651 30653 28
24523 30651 30654 28
24524 30651 30655 28
24525 30656 30657 28
24526 30656 30658 28
24527 30656 30659 28
24528 30656 30660 28
24529 30661 30662 28
24530 30661 30663 28
24531 30661 30664 28
24532 30661 30665 28
24533 30666 30667 28
24534 30666 30668 28
24535 30666 30669 28
24536 30666 30670 28
24537 30671 30672 28
24538 30671 30673 28
24539 30671 30674 28
24540 30671 30675 28
24541 30676 30677 28
24542 30676 30678 28
24543 30676 30679 28
24544 30676 30680 28
24545 30681 30682 28
24546 30681 30683 28
24547 30681 30684 28
24548 30681 30685 28
24549 30686 30687 28
24550 30686 30688 28
24551 30686 30689 28
24552 30686 30690 28
24553 30691 30692 28
24554 30691 30693 28
24555 30691 30694 28
24556 30691 30695 28
24557 30696 30697 28
24558 30696 30698 28
24559 30696 30699 28
24560 30696 30700 28
24561 30701 30702 28
24562 30701 30703 28
24563 30701 30704 28
24564 30701 30705 28
24565 30706 30707 28
24566 30706 30708 28
24567 30706 30709 28
24568 30706 30710 28
24569 30711 30712 28
24570 30711 30713 28
24571 30711 30714 28
24572 30711 30715 28
24573 30716 30717 28
24574 30716 30718 28
24575 30716 30719 28
24576 30716 30720 28
24577 30721 30722 28
24578 30721 30723 28
24579 30721 30724 28
24580 30721 30725 28
24581 30726 30727 28
24582 30726 30728 28
24583 30726 30729 28
24584 30726 30730 28
24585 30731 30732 28
24586 30731 30733 28
24587 30731 30734 28
24588 30731 30735 28
24589 30736 30737 28
24590 30736 30738 28
24591 30736 30739 28
24592 30736 30740 28
24593 30741 30742 28
24594 30741 30743 28
24595 30741 30744 28
24596 30741 30745 28
24597 30746 30747 28
24598 30746 30748 28
24599 30746 30749 28
24600 30746 30750 28
24601 30751 30752 28
24602 30751 30753 28
24603 30751 30754 28
24604 30751 30755 28
24605 30756 30757 28
24606 30756 30758 28
24607 30756 30759 28
24608 30756 30760 28
24609 30761 30762 28
24610 30761 30763 28
24611 30761 30764 28
24612 30761 30765 28
24613 30766 30767 28
24614 30766 30768 28
24615 30766 30769 28
24616 30766 30770 28
24617 30771 30772 28
24618 30771 30773 28
24619 30771 30774 28
24620 30771 30775 28
24621 30776 30777 28
24622 30776 30778 28
24623 30776 30779 28
24624 30776 30780 28
24625 30781 30782 28
24626 30781 30783 28
24627 30781 30784 28
24628 30781 30785 28
24629 30786 30787 28
24630 30786 30788 28
24631 30786 30789 28
24632 30786 30790 28
24633 30791 30792 28
24634 30791 30793 28
24635 30791 30794 28
24636 30791 30795 28
24637 30796 30797 28
24638 30796 30798 28
24639 30796 30799 28
24640 30796 30800 28
24641 30801 30802 28
24642 30801 30803 28
24643 30801 30804 28
24644 30801 30805 28
24645 30806 30807 28
24646 30806 30808 28
24647 30806 30809 28
24648 30806 30810 28
24649 30811 30812 28
24650 30811 30813 28
24651 30811 30814 28
24652 30811 30815 28
24653 30816 30817 28
24654 30816 30818 28
24655 30816 30819 28
24656 30816 30820 28
24657 30821 30822 28
24658 30821 30823 28
24659 30821 30824 28
24660 30821 30825 28
24661 30826 30827 28
24662 30826 30828 28
24663 30826 30829 28
24664 30826 30830 28
24665 30831 30832 28
24666 30831 30833 28
24667 30831 30834 28
24668 30831 30835 28
24669 30836 30837 28
24670 30836 30838 28
24671 30836 30839 28
24672 30836 30840 28
24673 30841 30842 28
24674 30841 30843 28
24675 30841 30844 28
24676 30841 30845 28
24677 30846 30847 28
24678 30846 30848 28
24679 30846 30849 28
24680 30846 30850 28
24681 30851 30852 28
24682 30851 30853 28
24683 30851 30854 28
24684 30851 30855 28
24685 30856 30857 28
24686 30856 30858 28
24687 30856 30859 28
24688 30856 30860 28
24689 30861 30862 28
24690 30861 30863 28
24691 30861 30864 28
24692 30861 30865 28
24693 30866 30867 28
24694 30866 30868 28
24695 30866 30869 28
24696 30866 30870 28
24697 30871 30872 28
24698 30871 30873 28
24699 30871 30874 28
24700 30871 30875 28
24701 30876 30877 28
24702 30876 30878 28
24703 30876 30879 28
24704 30876 30880 28
24705 30881 30882 28
24706 30881 30883 28
24707 30881 30884 28
24708 30881 30885 28
24709 30886 30887 28
24710 30886 30888 28
24711 30886 30889 28
24712 30886 30890 28
24713 30891 30892 28
24714 30891 30893 28
24715 30891 30894 28
24716 30891 30895 28
24717 30896 30897 28
24718 30896 30898 28
24719 30896 30899 28
24720 30896 30900 28
24721 30901 30902 28
24722 30901 30903 28
24723 30901 30904 28
24724 30901 30905 28
24725 30906 30907 28
24726 30906 30908 28
24727 30906 30909 28
24728 30906 30910 28
24729 30911 30912 28
24730 30911 30913 28
24731 30911 30914 28
24732 30911 30915 28
24733 30916 30917 28
24734 30916 30918 28
24735 30916 30919 28
24736 30916 30920 28
24737 30921 30922 28
24738 30921 30923 28
24739 30921 30924 28
24740 30921 30925 28
24741 30926 30927 28
24742 30926 30928 28
24743 30926 30929 28
24744 30926 30930 28
24745 30931 30932 28
24746 30931 30933 28
24747 30931 30934 28
24748 30931 30935 28
24749 30936 30937 28
24750 30936 30938 28
24751 30936 30939 28
24752 30936 30940 28
24753 30941 30942 28
24754 30941 30943 28
24755 30941 30944 28
24756 30941 30945 28
24757 30946 30947 28
24758 30946 30948 28
24759 30946 30949 28
24760 30946 30950 28
24761 30951 30952 28
24762 30951 30953 28
24763 30951 30954 28
24764 30951 30955 28
24765 30956 30957 28
24766 30956 30958 28
24767 30956 30959 28
24768 30956 30960 28
24769 30961 30962 28
24770 30961 30963 28
24771 30961 30964 28
24772 30961 30965 28
24773 30966 30967 28
24774 30966 30968 28
24775 30966 30969 28
24776 30966 30970 28
24777 30971 30972 28
24778 30971 30973 28
24779 30971 30974 28
24780 30971 30975 28
24781 30976 30977 28
24782 30976 30978 28
24783 30976 30979 28
24784 30976 30980 28
24785 30981 30982 28
24786 30981 30983 28
24787 30981 30984 28
24788 30981 30985 28
24789 30986 30987 28
24790 30986 30988 28
24791 30986 30989 28
24792 30986 30990 28
24793 30991 30992 28
24794 30991 30993 28
24795 30991 30994 28
24796 30991 30995 28
24797 30996 30997 28
24798 30996 30998 28
24799 30996 30999 28
24800 30996 31000 28
24801 31001 31002 28
24802 31001 31003 28
24803 31001 31004 28
24804 31001 31005 28
24805 31006 31007 28
24806 31006 31008 28
24807 31006 31009 28
24808 31006 31010 28
24809 31011 31012 28
24810 31011 31013 28
24811 31011 31014 28
24812 31011 31015 28
24813 31016 31017 28
24814 31016 31018 28
24815 31016 31019 28
24816 31016 31020 28
24817 31021 31022 28
24818 31021 31023 28
24819 31021 31024 28
24820 31021 31025 28
24821 31026 31027 28
24822 31026 31028 28
24823 31026 31029 28
24824 31026 31030 28
24825 31031 31032 28
24826 31031 31033 28
24827 31031 31034 28
24828 31031 31035 28
24829 31036 31037 28
24830 31036 31038 28
24831 31036 31039 28
24832 31036 31040 28
24833 31041 31042 28
24834 31041 31043 28
24835 31041 31044 28
24836 31041 31045 28
24837 31046 31047 28
24838 31046 31048 28
24839 31046 31049 28
24840 31046 31050 28
24841 31051 31052 28
24842 31051 31053 28
24843 31051 31054 28
24844 31051 31055 28
24845 31056 31057 28
24846 31056 31058 28
24847 31056 31059 28
24848 31056 31060 28
24849 31061 31062 28
24850 31061 31063 28
24851 31061 31064 28
24852 31061 31065 28
24853 31066 31067 28
24854 31066 31068 28
24855 31066 31069 28
24856 31066 31070 28
24857 31071 31072 28
24858 31071 31073 28
24859 31071 31074 28
24860 31071 31075 28
24861 31076 31077 28
24862 31076 31078 28
24863 31076 31079 28
24864 31076 31080 28
24865 31081 31082 28
24866 31081 31083 28
24867 31081 31084 28
24868 31081 31085 28
24869 31086 31087 28
24870 31086 31088 28
24871 31086 31089 28
24872 31086 31090 28
24873 31091 31092 28
24874 31091 31093 28
24875 31091 31094 28
24876 31091 31095 28
24877 31096 31097 28
24878 31096 31098 28
24879 31096 31099 28
24880 31096 31100 28
24881 31101 31102 28
24882 31101 31103 28
24883 31101 31104 28
24884 31101 31105 28
24885 31106 31107 28
24886 31106 31108 28
24887 31106 31109 28
24888 31106 31110 28
24889 31111 31112 28
24890 31111 31113 28
24891 31111 31114 28
24892 31111 31115 28
24893 31116 31117 28
24894 31116 31118 28
24895 31116 31119 28
24896 31116 31120 28
24897 31121 31122 28
24898 31121 31123 28
24899 31121 31124 28
24900 31121 31125 28
24901 31126 31127 28
24902 31126 31128 28
24903 31126 31129 28
24904 31126 31130 28
24905 31131 31132 28
24906 31131 31133 28
24907 31131 31134 28
24908 31131 31135 28
24909 31136 31137 28
24910 31136 31138 28
24911 31136 31139 28
24912 31136 31140 28
24913 31141 31142 28
24914 31141 31143 28
24915 31141 31144 28
24916 31141 31145 28
24917 31146 31147 28
24918 31146 31148 28
24919 31146 31149 28
24920 31146 31150 28
24921 31151 31152 28
24922 31151 31153 28
24923 31151 31154 28
24924 31151 31155 28
24925 31156 31157 28
24926 31156 31158 28
24927 31156 31159 28
24928 31156 31160 28
24929 31161 31162 28
24930 31161 31163 28
24931 31161 31164 28
24932 31161 31165 28
24933 31166 31167 28
24934 31166 31168 28
24935 31166 31169 28
24936 31166 31170 28
24937 31171 31172 28
24938 31171 31173 28
24939 31171 31174 28
24940 31171 31175 28
24941 31176 31177 28
24942 31176 31178 28
24943 31176 31179 28
24944 31176 31180 28
24945 31181 31182 28
24946 31181 31183 28
24947 31181 31184 28
24948 31181 31185 28
24949 31186 31187 28
24950 31186 31188 28
24951 31186 31189 28
24952 31186 31190 28
24953 31191 31192 28
24954 31191 31193 28
24955 31191 31194 28
24956 31191 31195 28
24957 31196 31197 28
24958 31196 31198 28
24959 31196 31199 28
24960 31196 31200 28
24961 31201 31202 28
24962 31201 31203 28
24963 31201 31204 28
24964 31201 31205 28
24965 31206 31207 28
24966 31206 31208 28
24967 31206 31209 28
24968 31206 31210 28
24969 31211 31212 28
24970 31211 31213 28
24971 31211 31214 28
24972 31211 31215 28
24973 31216 31217 28
24974 31216 31218 28
24975 31216 31219 28
24976 31216 31220 28
24977 31221 31222 28
24978 31221 31223 28
24979 31221 31224 28
24980 31221 31225 28
24981 31226 31227 28
24982 31226 31228 28
24983 31226 31229 28
24984 31226 31230 28
24985 31231 31232 28
24986 31231 31233 28
24987 31231 31234 28
24988 31231 31235 28
24989 31236 31237 28
24990 31236 31238 28
24991 31236 31239 28
24992 31236 31240 28
24993 31241 31242 28
24994 31241 31243 28
24995 31241 31244 28
24996 31241 31245 28
24997 31246 31247 28
24998 31246 31248 28
24999 31246 31249 28
25000 31246 31250 28
25001 31251 31252 28
25002 31251 31253 28
25003 31251 31254 28
25004 31251 31255 28
25005 31256 31257 28
25006 31256 31258 28
25007 31256 31259 28
25008 31256 31260 28
25009 31261 31262 28
25010 31261 31263 28
25011 31261 31264 28
25012 31261 31265 28
25013 31266 31267 28
25014 31266 31268 28
25015 31266 31269 28
25016 31266 31270 28
25017 31271 31272 28
25018 31271 31273 28
25019 31271 31274 28
25020 31271 31275 28
25021 31276 31277 28
25022 31276 31278 28
25023 31276 31279 28
25024 31276 31280 28
25025 31281 31282 28
25026 31281 31283 28
25027 31281 31284 28
25028 31281 31285 28
25029 31286 31287 28
25030 31286 31288 28
25031 31286 31289 28
25032 31286 31290 28
25033 31291 31292 28
25034 31291 31293 28
25035 31291 31294 28
25036 31291 31295 28
25037 31296 31297 28
25038 31296 31298 28
25039 31296 31299 28
25040 31296 31300 28
25041 31301 31302 28
25042 31301 31303 28
25043 31301 31304 28
25044 31301 31305 28
25045 31306 31307 28
25046 31306 31308 28
25047 31306 31309 28
25048 31306 31310 28
25049 31311 31312 28
25050 31311 31313 28
25051 31311 31314 28
25052 31311 31315 28
25053 31316 31317 28
25054 31316 31318 28
25055 31316 31319 28
25056 31316 31320 28
25057 31321 31322 28
25058 31321 31323 28
25059 31321 31324 28
25060 31321 31325 28
25061 31326 31327 28
25062 31326 31328 28
25063 31326 31329 28
25064 31326 31330 28
25065 31331 31332 28
25066 31331 31333 28
25067 31331 31334 28
25068 31331 31335 28
25069 31336 31337 28
25070 31336 31338 28
25071 31336 31339 28
25072 31336 31340 28
25073 31341 31342 28
25074 31341 31343 28
25075 31341 31344 28
25076 31341 31345 28
25077 31346 31347 28
25078 31346 31348 28
25079 31346 31349 28
25080 31346 31350 28
25081 31351 31352 28
25082 31351 31353 28
25083 31351 31354 28
25084 31351 31355 28
25085 31356 31357 28
25086 31356 31358 28
25087 31356 31359 28
25088 31356 31360 28
25089 31361 31362 28
25090 31361 31363 28
25091 31361 31364 28
25092 31361 31365 28
25093 31366 31367 28
25094 31366 31368 28
25095 31366 31369 28
25096 31366 31370 28
25097 31371 31372 28
25098 31371 31373 28
25099 31371 31374 28
25100 31371 31375 28
25101 31376 31377 28
25102 31376 31378 28
25103 31376 31379 28
25104 31376 31380 28
25105 31381 31382 28
25106 31381 31383 28
25107 31381 31384 28
25108 31381 31385 28
25109 31386 31387 28
25110 31386 31388 28
25111 31386 31389 28
25112 31386 31390 28
25113 31391 31392 28
25114 31391 31393 28
25115 31391 31394 28
25116 31391 31395 28
25117 31396 31397 28
25118 31396 31398 28
25119 31396 31399 28
25120 31396 31400 28
25121 31401 31402 28
25122 31401 31403 28
25123 31401 31404 28
25124 31401 31405 28
25125 31406 31407 28
25126 31406 31408 28
25127 31406 31409 28
25128 31406 31410 28
25129 31411 31412 28
25130 31411 31413 28
25131 31411 31414 28
25132 31411 31415 28
25133 31416 31417 28
25134 31416 31418 28
25135 31416 31419 28
25136 31416 31420 28
25137 31421 31422 28
25138 31421 31423 28
25139 31421 31424 28
25140 31421 31425 28
25141 31426 31427 28
25142 31426 31428 28
25143 31426 31429 28
25144 31426 31430 28
25145 31431 31432 28
25146 31431 31433 28
25147 31431 31434 28
25148 31431 31435 28
25149 31436 31437 28
25150 31436 31438 28
25151 31436 31439 28
25152 31436 31440 28
25153 31441 31442 28
25154 31441 31443 28
25155 31441 31444 28
25156 31441 31445 28
25157 31446 31447 28
25158 31446 31448 28
25159 31446 31449 28
25160 31446 31450 28
25161 31451 31452 28
25162 31451 31453 28
25163 31451 31454 28
25164 31451 31455 28
25165 31456 31457 28
25166 31456 31458 28
25167 31456 31459 28
25168 31456 31460 28
25169 31461 31462 28
25170 31461 31463 28
25171 31461 31464 28
25172 31461 31465 28
25173 31466 31467 28
25174 31466 31468 28
25175 31466 31469 28
25176 31466 31470 28
25177 31471 31472 28
25178 31471 31473 28
25179 31471 31474 28
25180 31471 31475 28
25181 31476 31477 28
25182 31476 31478 28
25183 31476 31479 28
25184 31476 31480 28
25185 31481 31482 28
25186 31481 31483 28
25187 31481 31484 28
25188 31481 31485 28
25189 31486 31487 28
25190 31486 31488 28
25191 31486 31489 28
25192 31486 31490 28
25193 31491 31492 28
25194 31491 31493 28
25195 31491 31494 28
25196 31491 31495 28
25197 31496 31497 28
25198 31496 31498 28
25199 31496 31499 28
25200 31496 31500 28
25201 31501 31502 28
25202 31501 31503 28
25203 31501 31504 28
25204 31501 31505 28
25205 31506 31507 28
25206 31506 31508 28
25207 31506 31509 28
25208 31506 31510 28
25209 31511 31512 28
25210 31511 31513 28
25211 31511 31514 28
25212 31511 31515 28
25213 31516 31517 28
25214 31516 31518 28
25215 31516 31519 28
25216 31516 31520 28
25217 31521 31522 28
25218 31521 31523 28
25219 31521 31524 28
25220 31521 31525 28
25221 31526 31527 28
25222 31526 31528 28
25223 31526 31529 28
25224 31526 31530 28
25225 31531 31532 28
25226 31531 31533 28
25227 31531 31534 28
25228 31531 31535 28
25229 31536 31537 28
25230 31536 31538 28
25231 31536 31539 28
25232 31536 31540 28
25233 31541 31542 28
25234 31541 31543 28
25235 31541 31544 28
25236 31541 31545 28
25237 31546 31547 28
25238 31546 31548 28
25239 31546 31549 28
25240 31546 31550 28
25241 31551 31552 28
25242 31551 31553 28
25243 31551 31554 28
25244 31551 31555 28
25245 31556 31557 28
25246 31556 31558 28
25247 31556 31559 28
25248 31556 31560 28
25249 31561 31562 28
25250 31561 31563 28
25251 31561 31564 28
25252 31561 31565 28
25253 31566 31567 28
25254 31566 31568 28
25255 31566 31569 28
25256 31566 31570 28
25257 31571 31572 28
25258 31571 31573 28
25259 31571 31574 28
25260 31571 31575 28
25261 31576 31577 28
25262 31576 31578 28
25263 31576 31579 28
25264 31576 31580 28
25265 31581 31582 28
25266 31581 31583 28
25267 31581 31584 28
25268 31581 31585 28
25269 31586 31587 28
25270 31586 31588 28
25271 31586 31589 28
25272 31586 31590 28
25273 31591 31592 28
25274 31591 31593 28
25275 31591 31594 28
25276 31591 31595 28
25277 31596 31597 28
25278 31596 31598 28
25279 31596 31599 28
25280 31596 31600 28
25281 31601 31602 28
25282 31601 31603 28
25283 31601 31604 28
25284 31601 31605 28
25285 31606 31607 28
25286 31606 31608 28
25287 31606 31609 28
25288 31606 31610 28
25289 31611 31612 28
25290 31611 31613 28
25291 31611 31614 28
25292 31611 31615 28
25293 31616 31617 28
25294 31616 31618 28
25295 31616 31619 28
25296 31616 31620 28
25297 31621 31622 28
25298 31621 31623 28
25299 31621 31624 28
25300 31621 31625 28
25301 31626 31627 28
25302 31626 31628 28
25303 31626 31629 28
25304 31626 31630 28
25305 31631 31632 28
25306 31631 31633 28
25307 31631 31634 28
25308 31631 31635 28
25309 31636 31637 28
25310 31636 31638 28
25311 31636 31639 28
25312 31636 31640 28
25313 31641 31642 28
25314 31641 31643 28
25315 31641 31644 28
25316 31641 31645 28
25317 31646 31647 28
25318 31646 31648 28
25319 31646 31649 28
25320 31646 31650 28
25321 31651 31652 28
25322 31651 31653 28
25323 31651 31654 28
25324 31651 31655 28
25325 31656 31657 28
25326 31656 31658 28
25327 31656 31659 28
25328 31656 31660 28
25329 31661 31662 28
25330 31661 31663 28
25331 31661 31664 28
25332 31661 31665 28
25333 31666 31667 28
25334 31666 31668 28
25335 31666 31669 28
25336 31666 31670 28
25337 31671 31672 28
25338 31671 31673 28
25339 31671 31674 28
25340 31671 31675 28
25341 31676 31677 28
25342 31676 31678 28
25343 31676 31679 28
25344 31676 31680 28
25345 31681 31682 28
25346 31681 31683 28
25347 31681 31684 28
25348 31681 31685 28
25349 31686 31687 28
25350 31686 31688 28
25351 31686 31689 28
25352 31686 31690 28
25353 31691 31692 28
25354 31691 31693 28
25355 31691 31694 28
25356 31691 31695 28
25357 31696 31697 28
25358 31696 31698 28
25359 31696 31699 28
25360 31696 31700 28
25361 31701 31702 28
25362 31701 31703 28
25363 31701 31704 28
25364 31701 31705 28
25365 31706 31707 28
25366 31706 31708 28
25367 31706 31709 28
25368 31706 31710 28
25369 31711 31712 28
25370 31711 31713 28
25371 31711 31714 28
25372 31711 31715 28
25373 31716 31717 28
25374 31716 31718 28
25375 31716 31719 28
25376 31716 31720 28
25377 31721 31722 28
25378 31721 31723 28
25379 31721 31724 28
25380 31721 31725 28
25381 31726 31727 28
25382 31726 31728 28
25383 31726 31729 28
25384 31726 31730 28
25385 31731 31732 28
25386 31731 31733 28
25387 31731 31734 28
25388 31731 31735 28
25389 31736 31737 28
25390 31736 31738 28
25391 31736 31739 28
25392 31736 31740 28
25393 31741 31742 28
25394 31741 31743 28
25395 31741 31744 28
25396 31741 31745 28
25397 31746 31747 28
25398 31746 31748 28
25399 31746 31749 28
25400 31746 31750 28
25401 31751 31752 28
25402 31751 31753 28
25403 31751 31754 28
25404 31751 31755 28
25405 31756 31757 28
25406 31756 31758 28
25407 31756 31759 28
25408 31756 31760 28
25409 31761 31762 28
25410 31761 31763 28
25411 31761 31764 28
25412 31761 31765 28
25413 31766 31767 28
25414 31766 31768 28
25415 31766 31769 28
25416 31766 31770 28
25417 31771 31772 28
25418 31771 31773 28
25419 31771 31774 28
25420 31771 31775 28
25421 31776 31777 28
25422 31776 31778 28
25423 31776 31779 28
25424 31776 31780 28
25425 31781 31782 28
25426 31781 31783 28
25427 31781 31784 28
25428 31781 31785 28
25429 31786 31787 28
25430 31786 31788 28
25431 31786 31789 28
25432 31786 31790 28
25433 31791 31792 28
25434 31791 31793 28
25435 31791 31794 28
25436 31791 31795 28
25437 31796 31797 28
25438 31796 31798 28
25439 31796 31799 28
25440 31796 31800 28
25441 31801 31802 28
25442 31801 31803 28
25443 31801 31804 28
25444 31801 31805 28
25445 31806 31807 28
25446 31806 31808 28
25447 31806 31809 28
25448 31806 31810 28
25449 31811 31812 28
25450 31811 31813 28
25451 31811 31814 28
25452 31811 31815 28
25453 31816 31817 28
25454 31816 31818 28
25455 31816 31819 28
25456 31816 31820 28
25457 31821 31822 28
25458 31821 31823 28
25459 31821 31824 28
25460 31821 31825 28
25461 31826 31827 28
25462 31826 31828 28
25463 31826 31829 28
25464 31826 31830 28
25465 31831 31832 28
25466 31831 31833 28
25467 31831 31834 28
25468 31831 31835 28
25469 31836 31837 28
25470 31836 31838 28
25471 31836 31839 28
25472 31836 31840 28
25473 31841 31842 28
25474 31841 31843 28
25475 31841 31844 28
25476 31841 31845 28
25477 31846 31847 28
25478 31846 31848 28
25479 31846 31849 28
25480 31846 31850 28
25481 31851 31852 28
25482 31851 31853 28
25483 31851 31854 28
25484 31851 31855 28
25485 31856 31857 28
25486 31856 31858 28
25487 31856 31859 28
25488 31856 31860 28
25489 31861 31862 28
25490 31861 31863 28
25491 31861 31864 28
25492 31861 31865 28
25493 31866 31867 28
25494 31866 31868 28
25495 31866 31869 28
25496 31866 31870 28
25497 31871 31872 28
25498 31871 31873 28
25499 31871 31874 28
25500 31871 31875 28
25501 31876 31877 28
25502 31876 31878 28
25503 31876 31879 28
25504 31876 31880 28
25505 31881 31882 28
25506 31881 31883 28
25507 31881 31884 28
25508 31881 31885 28
25509 31886 31887 28
25510 31886 31888 28
25511 31886 31889 28
25512 31886 31890 28
25513 31891 31892 28
25514 31891 31893 28
25515 31891 31894 28
25516 31891 31895 28
25517 31896 31897 28
25518 31896 31898 28
25519 31896 31899 28
25520 31896 31900 28
25521 31901 31902 28
25522 31901 31903 28
25523 31901 31904 28
25524 31901 31905 28
25525 31906 31907 28
25526 31906 31908 28
25527 31906 31909 28
25528 31906 31910 28
25529 31911 31912 28
25530 31911 31913 28
25531 31911 31914 28
25532 31911 31915 28
25533 31916 31917 28
25534 31916 31918 28
25535 31916 31919 28
25536 31916 31920 28
25537 31921 31922 28
25538 31921 31923 28
25539 31921 31924 28
25540 31921 31925 28
25541 31926 31927 28
25542 31926 31928 28
25543 31926 31929 28
25544 31926 31930 28
25545 31931 31932 28
25546 31931 31933 28
25547 31931 31934 28
25548 31931 31935 28
25549 31936 31937 28
25550 31936 31938 28
25551 31936 31939 28
25552 31936 31940 28
25553 31941 31942 28
25554 31941 31943 28
25555 31941 31944 28
25556 31941 31945 28
25557 31946 31947 28
25558 31946 31948 28
25559 31946 31949 28
25560 31946 31950 28
25561 31951 31952 28
25562 31951 31953 28
25563 31951 31954 28
25564 31951 31955 28
25565 31956 31957 28
25566 31956 31958 28
25567 31956 31959 28
25568 31956 31960 28
25569 31961 31962 28
25570 31961 31963 28
25571 31961 31964 28
25572 31961 31965 28
25573 31966 31967 28
25574 31966 31968 28
25575 31966 31969 28
25576 31966 31970 28
25577 31971 31972 28
25578 31971 31973 28
25579 31971 31974 28
25580 31971 31975 28
25581 31976 31977 28
25582 31976 31978 28
25583 31976 31979 28
25584 31976 31980 28
25585 31981 31982 28
25586 31981 31983 28
25587 31981 31984 28
25588 31981 31985 28
25589 31986 31987 28
25590 31986 31988 28
25591 31986 31989 28
25592 31986 31990 28
25593 31991 31992 28
25594 31991 31993 28
25595 31991 31994 28
25596 31991 31995 28
25597 31996 31997 28
25598 31996 31998 28
25599 31996 31999 28
25600 31996 32000 28
25601 32001 32002 28
25602 32001 32003 28
25603 32001 32004 28
25604 32001 32005 28
25605 32006 32007 28
25606 32006 32008 28
25607 32006 32009 28
25608 32006 32010 28
25609 32011 32012 28
25610 32011 32013 28
25611 32011 32014 28
25612 32011 32015 28
25613 32016 32017 28
25614 32016 32018 28
25615 32016 32019 28
25616 32016 32020 28
25617 32021 32022 28
25618 32021 32023 28
25619 32021 32024 28
25620 32021 32025 28
25621 32026 32027 28
25622 32026 32028 28
25623 32026 32029 28
25624 32026 32030 28
25625 32031 32032 28
25626 32031 32033 28
25627 32031 32034 28
25628 32031 32035 28
25629 32036 32037 28
25630 32036 32038 28
25631 32036 32039 28
25632 32036 32040 28
25633 32041 32042 28
25634 32041 32043 28
25635 32041 32044 28
25636 32041 32045 28
25637 32046 32047 28
25638 32046 32048 28
25639 32046 32049 28
25640 32046 32050 28
25641 32051 32052 28
25642 32051 32053 28
25643 32051 32054 28
25644 32051 32055 28
25645 32056 32057 28
25646 32056 32058 28
25647 32056 32059 28
25648 32056 32060 28
25649 32061 32062 28
25650 32061 32063 28
25651 32061 32064 28
25652 32061 32065 28
25653 32066 32067 28
25654 32066 32068 28
25655 32066 32069 28
25656 32066 32070 28
25657 32071 32072 28
25658 32071 32073 28
25659 32071 32074 28
25660 32071 32075 28
25661 32076 32077 28
25662 32076 32078 28
25663 32076 32079 28
25664 32076 32080 28
25665 32081 32082 28
25666 32081 32083 28
25667 32081 32084 28
25668 32081 32085 28
25669 32086 32087 28
25670 32086 32088 28
25671 32086 32089 28
25672 32086 32090 28
25673 32091 32092 28
25674 32091 32093 28
25675 32091 32094 28
25676 32091 32095 28
25677 32096 32097 28
25678 32096 32098 28
25679 32096 32099 28
25680 32096 32100 28
25681 32101 32102 28
25682 32101 32103 28
25683 32101 32104 28
25684 32101 32105 28
25685 32106 32107 28
25686 32106 32108 28
25687 32106 32109 28
25688 32106 32110 28
25689 32111 32112 28
25690 32111 32113 28
25691 32111 32114 28
25692 32111 32115 28
25693 32116 32117 28
25694 32116 32118 28
25695 32116 32119 28
25696 32116 32120 28
25697 32121 32122 28
25698 32121 32123 28
25699 32121 32124 28
25700 32121 32125 28
25701 32126 32127 28
25702 32126 32128 28
25703 32126 32129 28
25704 32126 32130 28
25705 32131 32132 28
25706 32131 32133 28
25707 32131 32134 28
25708 32131 32135 28
25709 32136 32137 28
25710 32136 32138 28
25711 32136 32139 28
25712 32136 32140 28
25713 32141 32142 28
25714 32141 32143 28
25715 32141 32144 28
25716 32141 32145 28
25717 32146 32147 28
25718 32146 32148 28
25719 32146 32149 28
25720 32146 32150 28
25721 32151 32152 28
25722 32151 32153 28
25723 32151 32154 28
25724 32151 32155 28
25725 32156 32157 28
25726 32156 32158 28
25727 32156 32159 28
25728 32156 32160 28
25729 32161 32162 28
25730 32161 32163 28
25731 32161 32164 28
25732 32161 32165 28
25733 32166 32167 28
25734 32166 32168 28
25735 32166 32169 28
25736 32166 32170 28
25737 32171 32172 28
25738 32171 32173 28
25739 32171 32174 28
25740 32171 32175 28
25741 32176 32177 28
25742 32176 32178 28
25743 32176 32179 28
25744 32176 32180 28
25745 32181 32182 28
25746 32181 32183 28
25747 32181 32184 28
25748 32181 32185 28
25749 32186 32187 28
25750 32186 32188 28
25751 32186 32189 28
25752 32186 32190 28
25753 32191 32192 28
25754 32191 32193 28
25755 32191 32194 28
25756 32191 32195 28
25757 32196 32197 28
25758 32196 32198 28
25759 32196 32199 28
25760 32196 32200 28
25761 32201 32202 28
25762 32201 32203 28
25763 32201 32204 28
25764 32201 32205 28
25765 32206 32207 28
25766 32206 32208 28
25767 32206 32209 28
25768 32206 32210 28
25769 32211 32212 28
25770 32211 32213 28
25771 32211 32214 28
25772 32211 32215 28
25773 32216 32217 28
25774 32216 32218 28
25775 32216 32219 28
25776 32216 32220 28
25777 32221 32222 28
25778 32221 32223 28
25779 32221 32224 28
25780 32221 32225 28
25781 32226 32227 28
25782 32226 32228 28
25783 32226 32229 28
25784 32226 32230 28
25785 32231 32232 28
25786 32231 32233 28
25787 32231 32234 28
25788 32231 32235 28
25789 32236 32237 28
25790 32236 32238 28
25791 32236 32239 28
25792 32236 32240 28
25793 32241 32242 28
25794 32241 32243 28
25795 32241 32244 28
25796 32241 32245 28
25797 32246 32247 28
25798 32246 32248 28
25799 32246 32249 28
25800 32246 32250 28
25801 32251 32252 28
25802 32251 32253 28
25803 32251 32254 28
25804 32251 32255 28
25805 32256 32257 28
25806 32256 32258 28
25807 32256 32259 28
25808 32256 32260 28
25809 32261 32262 28
25810 32261 32263 28
25811 32261 32264 28
25812 32261 32265 28
25813 32266 32267 28
25814 32266 32268 28
25815 32266 32269 28
25816 32266 32270 28
25817 32271 32272 28
25818 32271 32273 28
25819 32271 32274 28
25820 32271 32275 28
25821 32276 32277 28
25822 32276 32278 28
25823 32276 32279 28
25824 32276 32280 28
25825 32281 32282 28
25826 32281 32283 28
25827 32281 32284 28
25828 32281 32285 28
25829 32286 32287 28
25830 32286 32288 28
25831 32286 32289 28
25832 32286 32290 28
25833 32291 32292 28
25834 32291 32293 28
25835 32291 32294 28
25836 32291 32295 28
25837 32296 32297 28
25838 32296 32298 28
25839 32296 32299 28
25840 32296 32300 28
25841 32301 32302 28
25842 32301 32303 28
25843 32301 32304 28
25844 32301 32305 28
25845 32306 32307 28
25846 32306 32308 28
25847 32306 32309 28
25848 32306 32310 28
25849 32311 32312 28
25850 32311 32313 28
25851 32311 32314 28
25852 32311 32315 28
25853 32316 32317 28
25854 32316 32318 28
25855 32316 32319 28
25856 32316 32320 28
25857 32321 32322 28
25858 32321 32323 28
25859 32321 32324 28
25860 32321 32325 28
25861 32326 32327 28
25862 32326 32328 28
25863 32326 32329 28
25864 32326 32330 28
25865 32331 32332 28
25866 32331 32333 28
25867 32331 32334 28
25868 32331 32335 28
25869 32336 32337 28
25870 32336 32338 28
25871 32336 32339 28
25872 32336 32340 28
25873 32341 32342 28
25874 32341 32343 28
25875 32341 32344 28
25876 32341 32345 28
25877 32346 32347 28
25878 32346 32348 28
25879 32346 32349 28
25880 32346 32350 28
25881 32351 32352 28
25882 32351 32353 28
25883 32351 32354 28
25884 32351 32355 28
25885 32356 32357 28
25886 32356 32358 28
25887 32356 32359 28
25888 32356 32360 28
25889 32361 32362 28
25890 32361 32363 28
25891 32361 32364 28
25892 32361 32365 28
25893 32366 32367 28
25894 32366 32368 28
25895 32366 32369 28
25896 32366 32370 28
25897 32371 32372 28
25898 32371 32373 28
25899 32371 32374 28
25900 32371 32375 28
25901 32376 32377 28
25902 32376 32378 28
25903 32376 32379 28
25904 32376 32380 28
25905 32381 32382 28
25906 32381 32383 28
25907 32381 32384 28
25908 32381 32385 28
25909 32386 32387 28
25910 32386 32388 28
25911 32386 32389 28
25912 32386 32390 28
25913 32391 32392 28
25914 32391 32393 28
25915 32391 32394 28
25916 32391 32395 28
25917 32396 32397 28
25918 32396 32398 28
25919 32396 32399 28
25920 32396 32400 28
25921 32401 32402 28
25922 32401 32403 28
25923 32401 32404 28
25924 32401 32405 28
25925 32406 32407 28
25926 32406 32408 28
25927 32406 32409 28
25928 32406 32410 28
25929 32411 32412 28
25930 32411 32413 28
25931 32411 32414 28
25932 32411 32415 28
25933 32416 32417 28
25934 32416 32418 28
25935 32416 32419 28
25936 32416 32420 28
25937 32421 32422 28
25938 32421 32423 28
25939 32421 32424 28
25940 32421 32425 28
25941 32426 32427 28
25942 32426 32428 28
25943 32426 32429 28
25944 32426 32430 28
25945 32431 32432 28
25946 32431 32433 28
25947 32431 32434 28
25948 32431 32435 28
25949 32436 32437 28
25950 32436 32438 28
25951 32436 32439 28
25952 32436 32440 28
25953 32441 32442 28
25954 32441 32443 28
25955 32441 32444 28
25956 32441 32445 28
25957 32446 32447 28
25958 32446 32448 28
25959 32446 32449 28
25960 32446 32450 28
25961 32451 32452 28
25962 32451 32453 28
25963 32451 32454 28
25964 32451 32455 28
25965 32456 32457 28
25966 32456 32458 28
25967 32456 32459 28
25968 32456 32460 28
25969 32461 32462 28
25970 32461 32463 28
25971 32461 32464 28
25972 32461 32465 28
25973 32466 32467 28
25974 32466 32468 28
25975 32466 32469 28
25976 32466 32470 28
25977 32471 32472 28
25978 32471 32473 28
25979 32471 32474 28
25980 32471 32475 28
25981 32476 32477 28
25982 32476 32478 28
25983 32476 32479 28
25984 32476 32480 28
25985 32481 32482 28
25986 32481 32483 28
25987 32481 32484 28
25988 32481 32485 28
25989 32486 32487 28
25990 32486 32488 28
25991 32486 32489 28
25992 32486 32490 28
25993 32491 32492 28
25994 32491 32493 28
25995 32491 32494 28
25996 32491 32495 28
25997 32496 32497 28
25998 32496 32498 28
25999 32496 32499 28
26000 32496 32500 28
26001 32501 32502 28
26002 32501 32503 28
26003 32501 32504 28
26004 32501 32505 28
26005 32506 32507 28
26006 32506 32508 28
26007 32506 32509 28
26008 32506 32510 28
26009 32511 32512 28
26010 32511 32513 28
26011 32511 32514 28
26012 32511 32515 28
26013 32516 32517 28
26014 32516 32518 28
26015 32516 32519 28
26016 32516 32520 28
26017 32521 32522 28
26018 32521 32523 28
26019 32521 32524 28
26020 32521 32525 28
26021 32526 32527 28
26022 32526 32528 28
26023 32526 32529 28
26024 32526 32530 28
26025 32531 32532 28
26026 32531 32533 28
26027 32531 32534 28
26028 32531 32535 28
26029 32536 32537 28
26030 32536 32538 28
26031 32536 32539 28
26032 32536 32540 28
26033 32541 32542 28
26034 32541 32543 28
26035 32541 32544 28
26036 32541 32545 28
26037 32546 32547 28
26038 32546 32548 28
26039 32546 32549 28
26040 32546 32550 28
26041 32551 32552 28
26042 32551 32553 28
26043 32551 32554 28
26044 32551 32555 28
26045 32556 32557 28
26046 32556 32558 28
26047 32556 32559 28
26048 32556 32560 28
26049 32561 32562 28
26050 32561 32563 28
26051 32561 32564 28
26052 32561 32565 28
26053 32566 32567 28
26054 32566 32568 28
26055 32566 32569 28
26056 32566 32570 28
26057 32571 32572 28
26058 32571 32573 28
26059 32571 32574 28
26060 32571 32575 28
26061 32576 32577 28
26062 32576 32578 28
26063 32576 32579 28
26064 32576 32580 28
26065 32581 32582 28
26066 32581 32583 28
26067 32581 32584 28
26068 32581 32585 28
26069 32586 32587 28
26070 32586 32588 28
26071 32586 32589 28
26072 32586 32590 28
26073 32591 32592 28
26074 32591 32593 28
26075 32591 32594 28
26076 32591 32595 28
26077 32596 32597 28
26078 32596 32598 28
26079 32596 32599 28
26080 32596 32600 28
26081 32601 32602 28
26082 32601 32603 28
26083 32601 32604 28
26084 32601 32605 28
26085 32606 32607 28
26086 32606 32608 28
26087 32606 32609 28
26088 32606 32610 28
26089 32611 32612 28
26090 32611 32613 28
26091 32611 32614 28
26092 32611 32615 28
26093 32616 32617 28
26094 32616 32618 28
26095 32616 32619 28
26096 32616 32620 28
26097 32621 32622 28
26098 32621 32623 28
26099 32621 32624 28
26100 32621 32625 28
26101 32626 32627 28
26102 32626 32628 28
26103 32626 32629 28
26104 32626 32630 28
26105 32631 32632 28
26106 32631 32633 28
26107 32631 32634 28
26108 32631 32635 28
26109 32636 32637 28
26110 32636 32638 28
26111 32636 32639 28
26112 32636 32640 28
26113 32641 32642 28
26114 32641 32643 28
26115 32641 32644 28
26116 32641 32645 28
26117 32646 32647 28
26118 32646 32648 28
26119 32646 32649 28
26120 32646 32650 28
26121 32651 32652 28
26122 32651 32653 28
26123 32651 32654 28
26124 32651 32655 28
26125 32656 32657 28
26126 32656 32658 28
26127 32656 32659 28
26128 32656 32660 28
26129 32661 32662 28
26130 32661 32663 28
26131 32661 32664 28
26132 32661 32665 28
26133 32666 32667 28
26134 32666 32668 28
26135 32666 32669 28
26136 32666 32670 28
26137 32671 32672 28
26138 32671 32673 28
26139 32671 32674 28
26140 32671 32675 28
26141 32676 32677 28
26142 32676 32678 28
26143 32676 32679 28
26144 32676 32680 28
26145 32681 32682 28
26146 32681 32683 28
26147 32681 32684 28
26148 32681 32685 28
26149 32686 32687 28
26150 32686 32688 28
26151 32686 32689 28
26152 32686 32690 28
26153 32691 32692 28
26154 32691 32693 28
26155 32691 32694 28
26156 32691 32695 28
26157 32696 32697 28
26158 32696 32698 28
26159 32696 32699 28
26160 32696 32700 28
26161 32701 32702 28
26162 32701 32703 28
26163 32701 32704 28
26164 32701 32705 28
26165 32706 32707 28
26166 32706 32708 28
26167 32706 32709 28
26168 32706 32710 28
26169 32711 32712 28
26170 32711 32713 28
26171 32711 32714 28
26172 32711 32715 28
26173 32716 32717 28
26174 32716 32718 28
26175 32716 32719 28
26176 32716 32720 28
26177 32721 32722 28
26178 32721 32723 28
26179 32721 32724 28
26180 32721 32725 28
26181 32726 32727 28
26182 32726 32728 28
26183 32726 32729 28
26184 32726 32730 28
26185 32731 32732 28
26186 32731 32733 28
26187 32731 32734 28
26188 32731 32735 28
26189 32736 32737 28
26190 32736 32738 28
26191 32736 32739 28
26192 32736 32740 28
26193 32741 32742 28
26194 32741 32743 28
26195 32741 32744 28
26196 32741 32745 28
26197 32746 32747 28
26198 32746 32748 28
26199 32746 32749 28
26200 32746 32750 28
26201 32751 32752 28
26202 32751 32753 28
26203 32751 32754 28
26204 32751 32755 28
26205 32756 32757 28
26206 32756 32758 28
26207 32756 32759 28
26208 32756 32760 28
26209 32761 32762 28
26210 32761 32763 28
26211 32761 32764 28
26212 32761 32765 28
26213 32766 32767 28
26214 32766 32768 28
26215 32766 32769 28
26216 32766 32770 28
26217 32771 32772 28
26218 32771 32773 28
26219 32771 32774 28
26220 32771 32775 28
26221 32776 32777 28
26222 32776 32778 28
26223 32776 32779 28
26224 32776 32780 28
26225 32781 32782 28
26226 32781 32783 28
26227 32781 32784 28
26228 32781 32785 28
26229 32786 32787 28
26230 32786 32788 28
26231 32786 32789 28
26232 32786 32790 28
26233 32791 32792 28
26234 32791 32793 28
26235 32791 32794 28
26236 32791 32795 28
26237 32796 32797 28
26238 32796 32798 28
26239 32796 32799 28
26240 32796 32800 28
26241 32801 32802 28
26242 32801 32803 28
26243 32801 32804 28
26244 32801 32805 28
26245 32806 32807 28
26246 32806 32808 28
26247 32806 32809 28
26248 32806 32810 28
26249 32811 32812 28
26250 32811 32813 28
26251 32811 32814 28
26252 32811 32815 28
26253 32816 32817 28
26254 32816 32818 28
26255 32816 32819 28
26256 32816 32820 28
26257 32821 32822 28
26258 32821 32823 28
26259 32821 32824 28
26260 32821 32825 28
26261 32826 32827 28
26262 32826 32828 28
26263 32826 32829 28
26264 32826 32830 28
26265 32831 32832 28
26266 32831 32833 28
26267 32831 32834 28
26268 32831 32835 28
26269 32836 32837 28
26270 32836 32838 28
26271 32836 32839 28
26272 32836 32840 28
26273 32841 32842 28
26274 32841 32843 28
26275 32841 32844 28
26276 32841 32845 28
26277 32846 32847 28
26278 32846 32848 28
26279 32846 32849 28
26280 32846 32850 28
26281 32851 32852 28
26282 32851 32853 28
26283 32851 32854 28
26284 32851 32855 28
26285 32856 32857 28
26286 32856 32858 28
26287 32856 32859 28
26288 32856 32860 28
26289 32861 32862 28
26290 32861 32863 28
26291 32861 32864 28
26292 32861 32865 28
26293 32866 32867 28
26294 32866 32868 28
26295 32866 32869 28
26296 32866 32870 28
26297 32871 32872 28
26298 32871 32873 28
26299 32871 32874 28
26300 32871 32875 28
26301 32876 32877 28
26302 32876 32878 28
26303 32876 32879 28
26304 32876 32880 28
26305 32881 32882 28
26306 32881 32883 28
26307 32881 32884 28
26308 32881 32885 28
26309 32886 32887 28
26310 32886 32888 28
26311 32886 32889 28
26312 32886 32890 28
26313 32891 32892 28
26314 32891 32893 28
26315 32891 32894 28
26316 32891 32895 28
26317 32896 32897 28
26318 32896 32898 28
26319 32896 32899 28
26320 32896 32900 28
26321 32901 32902 28
26322 32901 32903 28
26323 32901 32904 28
26324 32901 32905 28
26325 32906 32907 28
26326 32906 32908 28
26327 32906 32909 28
26328 32906 32910 28
26329 32911 32912 28
26330 32911 32913 28
26331 32911 32914 28
26332 32911 32915 28
26333 32916 32917 28
26334 32916 32918 28
26335 32916 32919 28
26336 32916 32920 28
26337 32921 32922 28
26338 32921 32923 28
26339 32921 32924 28
26340 32921 32925 28
26341 32926 32927 28
26342 32926 32928 28
26343 32926 32929 28
26344 32926 32930 28
26345 32931 32932 28
26346 32931 32933 28
26347 32931 32934 28
26348 32931 32935 28
26349 32936 32937 28
26350 32936 32938 28
26351 32936 32939 28
26352 32936 32940 28
26353 32941 32942 28
26354 32941 32943 28
26355 32941 32944 28
26356 32941 32945 28
26357 32946 32947 28
26358 32946 32948 28
26359 32946 32949 28
26360 32946 32950 28
26361 32951 32952 28
26362 32951 32953 28
26363 32951 32954 28
26364 32951 32955 28
26365 32956 32957 28
26366 32956 32958 28
26367 32956 32959 28
26368 32956 32960 28
26369 32961 32962 28
26370 32961 32963 28
26371 32961 32964 28
26372 32961 32965 28
26373 32966 32967 28
26374 32966 32968 28
26375 32966 32969 28
26376 32966 32970 28
26377 32971 32972 28
26378 32971 32973 28
26379 32971 32974 28
26380 32971 32975 28
26381 32976 32977 28
26382 32976 32978 28
26383 32976 32979 28
26384 32976 32980 28
26385 32981 32982 28
26386 32981 32983 28
26387 32981 32984 28
26388 32981 32985 28
26389 32986 32987 28
26390 32986 32988 28
26391 32986 32989 28
26392 32986 32990 28
26393 32991 32992 28
26394 32991 32993 28
26395 32991 32994 28
26396 32991 32995 28
26397 32996 32997 28
26398 32996 32998 28
26399 32996 32999 28
26400 32996 33000 28
26401 33001 33002 28
26402 33001 33003 28
26403 33001 33004 28
26404 33001 33005 28
26405 33006 33007 28
26406 33006 33008 28
26407 33006 33009 28
26408 33006 33010 28
26409 33011 33012 28
26410 33011 33013 28
26411 33011 33014 28
26412 33011 33015 28
26413 33016 33017 28
26414 33016 33018 28
26415 33016 33019 28
26416 33016 33020 28
26417 33021 33022 28
26418 33021 33023 28
26419 33021 33024 28
26420 33021 33025 28
26421 33026 33027 28
26422 33026 33028 28
26423 33026 33029 28
26424 33026 33030 28
26425 33031 33032 28
26426 33031 33033 28
26427 33031 33034 28
26428 33031 33035 28
26429 33036 33037 28
26430 33036 33038 28
26431 33036 33039 28
26432 33036 33040 28
26433 33041 33042 28
26434 33041 33043 28
26435 33041 33044 28
26436 33041 33045 28
26437 33046 33047 28
26438 33046 33048 28
26439 33046 33049 28
26440 33046 33050 28
26441 33051 33052 28
26442 33051 33053 28
26443 33051 33054 28
26444 33051 33055 28
26445 33056 33057 28
26446 33056 33058 28
26447 33056 33059 28
26448 33056 33060 28
26449 33061 33062 28
26450 33061 33063 28
26451 33061 33064 28
26452 33061 33065 28
26453 33066 33067 28
26454 33066 33068 28
26455 33066 33069 28
26456 33066 33070 28
26457 33071 33072 28
26458 33071 33073 28
26459 33071 33074 28
26460 33071 33075 28
26461 33076 33077 28
26462 33076 33078 28
26463 33076 33079 28
26464 33076 33080 28
26465 33081 33082 28
26466 33081 33083 28
26467 33081 33084 28
26468 33081 33085 28
26469 33086 33087 28
26470 33086 33088 28
26471 33086 33089 28
26472 33086 33090 28
26473 33091 33092 28
26474 33091 33093 28
26475 33091 33094 28
26476 33091 33095 28
26477 33096 33097 28
26478 33096 33098 28
26479 33096 33099 28
26480 33096 33100 28
26481 33101 33102 28
26482 33101 33103 28
26483 33101 33104 28
26484 33101 33105 28
26485 33106 33107 28
26486 33106 33108 28
26487 33106 33109 28
26488 33106 33110 28
26489 33111 33112 28
26490 33111 33113 28
26491 33111 33114 28
26492 33111 33115 28
26493 33116 33117 28
26494 33116 33118 28
26495 33116 33119 28
26496 33116 33120 28
26497 33121 33122 28
26498 33121 33123 28
26499 33121 33124 28
26500 33121 33125 28
26501 33126 33127 28
26502 33126 33128 28
26503 33126 33129 28
26504 33126 33130 28
26505 33131 33132 28
26506 33131 33133 28
26507 33131 33134 28
26508 33131 33135 28
26509 33136 33137 28
26510 33136 33138 28
26511 33136 33139 28
26512 33136 33140 28
26513 33141 33142 28
26514 33141 33143 28
26515 33141 33144 28
26516 33141 33145 28
26517 33146 33147 28
26518 33146 33148 28
26519 33146 33149 28
26520 33146 33150 28
26521 33151 33152 28
26522 33151 33153 28
26523 33151 33154 28
26524 33151 33155 28
26525 33156 33157 28
26526 33156 33158 28
26527 33156 33159 28
26528 33156 33160 28
26529 33161 33162 28
26530 33161 33163 28
26531 33161 33164 28
26532 33161 33165 28
26533 33166 33167 28
26534 33166 33168 28
26535 33166 33169 28
26536 33166 33170 28
26537 33171 33172 28
26538 33171 33173 28
26539 33171 33174 28
26540 33171 33175 28
26541 33176 33177 28
26542 33176 33178 28
26543 33176 33179 28
26544 33176 33180 28
26545 33181 33182 28
26546 33181 33183 28
26547 33181 33184 28
26548 33181 33185 28
26549 33186 33187 28
26550 33186 33188 28
26551 33186 33189 28
26552 33186 33190 28
26553 33191 33192 28
26554 33191 33193 28
26555 33191 33194 28
26556 33191 33195 28
26557 33196 33197 28
26558 33196 33198 28
26559 33196 33199 28
26560 33196 33200 28
26561 33201 33202 28
26562 33201 33203 28
26563 33201 33204 28
26564 33201 33205 28
26565 33206 33207 28
26566 33206 33208 28
26567 33206 33209 28
26568 33206 33210 28
26569 33211 33212 28
26570 33211 33213 28
26571 33211 33214 28
26572 33211 33215 28
26573 33216 33217 28
26574 33216 33218 28
26575 33216 33219 28
26576 33216 33220 28
26577 33221 33222 28
26578 33221 33223 28
26579 33221 33224 28
26580 33221 33225 28
26581 33226 33227 28
26582 33226 33228 28
26583 33226 33229 28
26584 33226 33230 28
26585 33231 33232 28
26586 33231 33233 28
26587 33231 33234 28
26588 33231 33235 28
26589 33236 33237 28
26590 33236 33238 28
26591 33236 33239 28
26592 33236 33240 28
26593 33241 33242 28
26594 33241 33243 28
26595 33241 33244 28
26596 33241 33245 28
26597 33246 33247 28
26598 33246 33248 28
26599 33246 33249 28
26600 33246 33250 28
26601 33251 33252 28
26602 33251 33253 28
26603 33251 33254 28
26604 33251 33255 28
26605 33256 33257 28
26606 33256 33258 28
26607 33256 33259 28
26608 33256 33260 28
26609 33261 33262 28
26610 33261 33263 28
26611 33261 33264 28
26612 33261 33265 28
26613 33266 33267 28
26614 33266 33268 28
26615 33266 33269 28
26616 33266 33270 28
26617 33271 33272 28
26618 33271 33273 28
26619 33271 33274 28
26620 33271 33275 28
26621 33276 33277 28
26622 33276 33278 28
26623 33276 33279 28
26624 33276 33280 28
26625 33281 33282 28
26626 33281 33283 28
26627 33281 33284 28
26628 33281 33285 28
26629 33286 33287 28
26630 33286 33288 28
26631 33286 33289 28
26632 33286 33290 28
26633 33291 33292 28
26634 33291 33293 28
26635 33291 33294 28
26636 33291 33295 28
26637 33296 33297 28
26638 33296 33298 28
26639 33296 33299 28
26640 33296 33300 28
26641 33301 33302 28
26642 33301 33303 28
26643 33301 33304 28
26644 33301 33305 28
26645 33306 33307 28
26646 33306 33308 28
26647 33306 33309 28
26648 33306 33310 28
26649 33311 33312 28
26650 33311 33313 28
26651 33311 33314 28
26652 33311 33315 28
26653 33316 33317 28
26654 33316 33318 28
26655 33316 33319 28
26656 33316 33320 28
26657 33321 33322 28
26658 33321 33323 28
26659 33321 33324 28
26660 33321 33325 28
26661 33326 33327 28
26662 33326 33328 28
26663 33326 33329 28
26664 33326 33330 28
26665 33331 33332 28
26666 33331 33333 28
26667 33331 33334 28
26668 33331 33335 28
26669 33336 33337 28
26670 33336 33338 28
26671 33336 33339 28
26672 33336 33340 28
26673 33341 33342 28
26674 33341 33343 28
26675 33341 33344 28
26676 33341 33345 28
26677 33346 33347 28
26678 33346 33348 28
26679 33346 33349 28
26680 33346 33350 28
26681 33351 33352 28
26682 33351 33353 28
26683 33351 33354 28
26684 33351 33355 28
26685 33356 33357 28
26686 33356 33358 28
26687 33356 33359 28
26688 33356 33360 28
26689 33361 33362 28
26690 33361 33363 28
26691 33361 33364 28
26692 33361 33365 28
26693 33366 33367 28
26694 33366 33368 28
26695 33366 33369 28
26696 33366 33370 28
26697 33371 33372 28
26698 33371 33373 28
26699 33371 33374 28
26700 33371 33375 28
26701 33376 33377 28
26702 33376 33378 28
26703 33376 33379 28
26704 33376 33380 28
26705 33381 33382 28
26706 33381 33383 28
26707 33381 33384 28
26708 33381 33385 28
26709 33386 33387 28
26710 33386 33388 28
26711 33386 33389 28
26712 33386 33390 28
26713 33391 33392 28
26714 33391 33393 28
26715 33391 33394 28
26716 33391 33395 28
26717 33396 33397 28
26718 33396 33398 28
26719 33396 33399 28
26720 33396 33400 28
26721 33401 33402 28
26722 33401 33403 28
26723 33401 33404 28
26724 33401 33405 28
26725 33406 33407 28
26726 33406 33408 28
26727 33406 33409 28
26728 33406 33410 28
26729 33411 33412 28
26730 33411 33413 28
26731 33411 33414 28
26732 33411 33415 28
26733 33416 33417 28
26734 33416 33418 28
26735 33416 33419 28
26736 33416 33420 28
26737 33421 33422 28
26738 33421 33423 28
26739 33421 33424 28
26740 33421 33425 28
26741 33426 33427 28
26742 33426 33428 28
26743 33426 33429 28
26744 33426 33430 28
26745 33431 33432 28
26746 33431 33433 28
26747 33431 33434 28
26748 33431 33435 28
26749 33436 33437 28
26750 33436 33438 28
26751 33436 33439 28
26752 33436 33440 28
26753 33441 33442 28
26754 33441 33443 28
26755 33441 33444 28
26756 33441 33445 28
26757 33446 33447 28
26758 33446 33448 28
26759 33446 33449 28
26760 33446 33450 28
26761 33451 33452 28
26762 33451 33453 28
26763 33451 33454 28
26764 33451 33455 28
26765 33456 33457 28
26766 33456 33458 28
26767 33456 33459 28
26768 33456 33460 28
26769 33461 33462 28
26770 33461 33463 28
26771 33461 33464 28
26772 33461 33465 28
26773 33466 33467 28
26774 33466 33468 28
26775 33466 33469 28
26776 33466 33470 28
26777 33471 33472 28
26778 33471 33473 28
26779 33471 33474 28
26780 33471 33475 28
26781 33476 33477 28
26782 33476 33478 28
26783 33476 33479 28
26784 33476 33480 28
26785 33481 33482 28
26786 33481 33483 28
26787 33481 33484 28
26788 33481 33485 28
26789 33486 33487 28
26790 33486 33488 28
26791 33486 33489 28
26792 33486 33490 28
26793 33491 33492 28
26794 33491 33493 28
26795 33491 33494 28
26796 33491 33495 28
26797 33496 33497 28
26798 33496 33498 28
26799 33496 33499 28
26800 33496 33500 28
26801 33501 33502 28
26802 33501 33503 28
26803 33501 33504 28
26804 33501 33505 28
26805 33506 33507 28
26806 33506 33508 28
26807 33506 33509 28
26808 33506 33510 28
26809 33511 33512 28
26810 33511 33513 28
26811 33511 33514 28
26812 33511 33515 28
26813 33516 33517 28
26814 33516 33518 28
26815 33516 33519 28
26816 33516 33520 28
26817 33521 33522 28
26818 33521 33523 28
26819 33521 33524 28
26820 33521 33525 28
26821 33526 33527 28
26822 33526 33528 28
26823 33526 33529 28
26824 33526 33530 28
26825 33531 33532 28
26826 33531 33533 28
26827 33531 33534 28
26828 33531 33535 28
26829 33536 33537 28
26830 33536 33538 28
26831 33536 33539 28
26832 33536 33540 28
26833 33541 33542 28
26834 33541 33543 28
26835 33541 33544 28
26836 33541 33545 28
26837 33546 33547 28
26838 33546 33548 28
26839 33546 33549 28
26840 33546 33550 28
26841 33551 33552 28
26842 33551 33553 28
26843 33551 33554 28
26844 33551 33555 28
26845 33556 33557 28
26846 33556 33558 28
26847 33556 33559 28
26848 33556 33560 28
26849 33561 33562 28
26850 33561 33563 28
26851 33561 33564 28
26852 33561 33565 28
26853 33566 33567 28
26854 33566 33568 28
26855 33566 33569 28
26856 33566 33570 28
26857 33571 33572 28
26858 33571 33573 28
26859 33571 33574 28
26860 33571 33575 28
26861 33576 33577 28
26862 33576 33578 28
26863 33576 33579 28
26864 33576 33580 28
26865 33581 33582 28
26866 33581 33583 28
26867 33581 33584 28
26868 33581 33585 28
26869 33586 33587 28
26870 33586 33588 28
26871 33586 33589 28
26872 33586 33590 28
26873 33591 33592 28
26874 33591 33593 28
26875 33591 33594 28
26876 33591 33595 28
26877 33596 33597 28
26878 33596 33598 28
26879 33596 33599 28
26880 33596 33600 28
26881 33601 33602 28
26882 33601 33603 28
26883 33601 33604 28
26884 33601 33605 28
26885 33606 33607 28
26886 33606 33608 28
26887 33606 33609 28
26888 33606 33610 28
26889 33611 33612 28
26890 33611 33613 28
26891 33611 33614 28
26892 33611 33615 28
26893 33616 33617 28
26894 33616 33618 28
26895 33616 33619 28
26896 33616 33620 28
26897 33621 33622 28
26898 33621 33623 28
26899 33621 33624 28
26900 33621 33625 28
26901 33626 33627 28
26902 33626 33628 28
26903 33626 33629 28
26904 33626 33630 28
26905 33631 33632 28
26906 33631 33633 28
26907 33631 33634 28
26908 33631 33635 28
26909 33636 33637 28
26910 33636 33638 28
26911 33636 33639 28
26912 33636 33640 28
26913 33641 33642 28
26914 33641 33643 28
26915 33641 33644 28
26916 33641 33645 28
26917 33646 33647 28
26918 33646 33648 28
26919 33646 33649 28
26920 33646 33650 28
26921 33651 33652 28
26922 33651 33653 28
26923 33651 33654 28
26924 33651 33655 28
26925 33656 33657 28
26926 33656 33658 28
26927 33656 33659 28
26928 33656 33660 28
26929 33661 33662 28
26930 33661 33663 28
26931 33661 33664 28
26932 33661 33665 28
26933 33666 33667 28
26934 33666 33668 28
26935 33666 33669 28
26936 33666 33670 28
26937 33671 33672 28
26938 33671 33673 28
26939 33671 33674 28
26940 33671 33675 28
26941 33676 33677 28
26942 33676 33678 28
26943 33676 33679 28
26944 33676 33680 28
26945 33681 33682 28
26946 33681 33683 28
26947 33681 33684 28
26948 33681 33685 28
26949 33686 33687 28
26950 33686 33688 28
26951 33686 33689 28
26952 33686 33690 28
26953 33691 33692 28
26954 33691 33693 28
26955 33691 33694 28
26956 33691 33695 28
26957 33696 33697 28
26958 33696 33698 28
26959 33696 33699 28
26960 33696 33700 28
26961 33701 33702 28
26962 33701 33703 28
26963 33701 33704 28
26964 33701 33705 28
26965 33706 33707 28
26966 33706 33708 28
26967 33706 33709 28
26968 33706 33710 28
26969 33711 33712 28
26970 33711 33713 28
26971 33711 33714 28
26972 33711 33715 28
26973 33716 33717 28
26974 33716 33718 28
26975 33716 33719 28
26976 33716 33720 28
26977 33721 33722 28
26978 33721 33723 28
26979 33721 33724 28
26980 33721 33725 28
26981 33726 33727 28
26982 33726 33728 28
26983 33726 33729 28
26984 33726 33730 28
26985 33731 33732 28
26986 33731 33733 28
26987 33731 33734 28
26988 33731 33735 28
26989 33736 33737 28
26990 33736 33738 28
26991 33736 33739 28
26992 33736 33740 28
26993 33741 33742 28
26994 33741 33743 28
26995 33741 33744 28
26996 33741 33745 28
26997 33746 33747 28
26998 33746 33748 28
26999 33746 33749 28
27000 33746 33750 28
27001 33751 33752 28
27002 33751 33753 28
27003 33751 33754 28
27004 33751 33755 28
27005 33756 33757 28
27006 33756 33758 28
27007 33756 33759 28
27008 33756 33760 28
27009 33761 33762 28
27010 33761 33763 28
27011 33761 33764 28
27012 33761 33765 28
27013 33766 33767 28
27014 33766 33768 28
27015 33766 33769 28
27016 33766 33770 28
27017 33771 33772 28
27018 33771 33773 28
27019 33771 33774 28
27020 33771 33775 28
27021 33776 33777 28
27022 33776 33778 28
27023 33776 33779 28
27024 33776 33780 28
27025 33781 33782 28
27026 33781 33783 28
27027 33781 33784 28
27028 33781 33785 28
27029 33786 33787 28
27030 33786 33788 28
27031 33786 33789 28
27032 33786 33790 28
27033 33791 33792 28
27034 33791 33793 28
27035 33791 33794 28
27036 33791 33795 28
27037 33796 33797 28
27038 33796 33798 28
27039 33796 33799 28
27040 33796 33800 28
27041 33801 33802 28
27042 33801 33803 28
27043 33801 33804 28
27044 33801 33805 28
27045 33806 33807 28
27046 33806 33808 28
27047 33806 33809 28
27048 33806 33810 28
27049 33811 33812 28
27050 33811 33813 28
27051 33811 33814 28
27052 33811 33815 28
27053 33816 33817 28
27054 33816 33818 28
27055 33816 33819 28
27056 33816 33820 28
27057 33821 33822 28
27058 33821 33823 28
27059 33821 33824 28
27060 33821 33825 28
27061 33826 33827 28
27062 33826 33828 28
27063 33826 33829 28
27064 33826 33830 28
27065 33831 33832 28
27066 33831 33833 28
27067 33831 33834 28
27068 33831 33835 28
27069 33836 33837 28
27070 33836 33838 28
27071 33836 33839 28
27072 33836 33840 28
27073 33841 33842 28
27074 33841 33843 28
27075 33841 33844 28
27076 33841 33845 28
27077 33846 33847 28
27078 33846 33848 28
27079 33846 33849 28
27080 33846 33850 28
27081 33851 33852 28
27082 33851 33853 28
27083 33851 33854 28
27084 33851 33855 28
27085 33856 33857 28
27086 33856 33858 28
27087 33856 33859 28
27088 33856 33860 28
27089 33861 33862 28
27090 33861 33863 28
27091 33861 33864 28
27092 33861 33865 28
27093 33866 33867 28
27094 33866 33868 28
27095 33866 33869 28
27096 33866 33870 28
27097 33871 33872 28
27098 33871 33873 28
27099 33871 33874 28
27100 33871 33875 28
27101 33876 33877 28
27102 33876 33878 28
27103 33876 33879 28
27104 33876 33880 28
27105 33881 33882 28
27106 33881 33883 28
27107 33881 33884 28
27108 33881 33885 28
27109 33886 33887 28
27110 33886 33888 28
27111 33886 33889 28
27112 33886 33890 28
27113 33891 33892 28
27114 33891 33893 28
27115 33891 33894 28
27116 33891 33895 28
27117 33896 33897 28
27118 33896 33898 28
27119 33896 33899 28
27120 33896 33900 28
27121 33901 33902 28
27122 33901 33903 28
27123 33901 33904 28
27124 33901 33905 28
27125 33906 33907 28
27126 33906 33908 28
27127 33906 33909 28
27128 33906 33910 28
27129 33911 33912 28
27130 33911 33913 28
27131 33911 33914 28
27132 33911 33915 28
27133 33916 33917 28
27134 33916 33918 28
27135 33916 33919 28
27136 33916 33920 28
27137 33921 33922 28
27138 33921 33923 28
27139 33921 33924 28
27140 33921 33925 28
27141 33926 33927 28
27142 33926 33928 28
27143 33926 33929 28
27144 33926 33930 28
27145 33931 33932 28
27146 33931 33933 28
27147 33931 33934 28
27148 33931 33935 28
27149 33936 33937 28
27150 33936 33938 28
27151 33936 33939 28
27152 33936 33940 28
27153 33941 33942 28
27154 33941 33943 28
27155 33941 33944 28
27156 33941 33945 28
27157 33946 33947 28
27158 33946 33948 28
27159 33946 33949 28
27160 33946 33950 28
27161 33951 33952 28
27162 33951 33953 28
27163 33951 33954 28
27164 33951 33955 28
27165 33956 33957 28
27166 33956 33958 28
27167 33956 33959 28
27168 33956 33960 28
27169 33961 33962 28
27170 33961 33963 28
27171 33961 33964 28
27172 33961 33965 28
27173 33966 33967 28
27174 33966 33968 28
27175 33966 33969 28
27176 33966 33970 28
27177 33971 33972 28
27178 33971 33973 28
27179 33971 33974 28
27180 33971 33975 28
27181 33976 33977 28
27182 33976 33978 28
27183 33976 33979 28
27184 33976 33980 28
27185 33981 33982 28
27186 33981 33983 28
27187 33981 33984 28
27188 33981 33985 28
27189 33986 33987 28
27190 33986 33988 28
27191 33986 33989 28
27192 33986 33990 28
27193 33991 33992 28
27194 33991 33993 28
27195 33991 33994 28
27196 33991 33995 28
27197 33996 33997 28
27198 33996 33998 28
27199 33996 33999 28
27200 33996 34000 28
27201 34001 34002 28
27202 34001 34003 28
27203 34001 34004 28
27204 34001 34005 28
27205 34006 34007 28
27206 34006 34008 28
27207 34006 34009 28
27208 34006 34010 28
27209 34011 34012 28
27210 34011 34013 28
27211 34011 34014 28
27212 34011 34015 28
27213 34016 34017 28
27214 34016 34018 28
27215 34016 34019 28
27216 34016 34020 28
27217 34021 34022 28
27218 34021 34023 28
27219 34021 34024 28
27220 34021 34025 28
27221 34026 34027 28
27222 34026 34028 28
27223 34026 34029 28
27224 34026 34030 28
27225 34031 34032 28
27226 34031 34033 28
27227 34031 34034 28
27228 34031 34035 28
27229 34036 34037 28
27230 34036 34038 28
27231 34036 34039 28
27232 34036 34040 28
27233 34041 34042 28
27234 34041 34043 28
27235 34041 34044 28
27236 34041 34045 28
27237 34046 34047 28
27238 34046 34048 28
27239 34046 34049 28
27240 34046 34050 28
27241 34051 34052 28
27242 34051 34053 28
27243 34051 34054 28
27244 34051 34055 28
27245 34056 34057 28
27246 34056 34058 28
27247 34056 34059 28
27248 34056 34060 28
27249 34061 34062 28
27250 34061 34063 28
27251 34061 34064 28
27252 34061 34065 28
27253 34066 34067 28
27254 34066 34068 28
27255 34066 34069 28
27256 34066 34070 28
27257 34071 34072 28
27258 34071 34073 28
27259 34071 34074 28
27260 34071 34075 28
27261 34076 34077 28
27262 34076 34078 28
27263 34076 34079 28
27264 34076 34080 28
27265 34081 34082 28
27266 34081 34083 28
27267 34081 34084 28
27268 34081 34085 28
27269 34086 34087 28
27270 34086 34088 28
27271 34086 34089 28
27272 34086 34090 28
27273 34091 34092 28
27274 34091 34093 28
27275 34091 34094 28
27276 34091 34095 28
27277 34096 34097 28
27278 34096 34098 28
27279 34096 34099 28
27280 34096 34100 28
27281 34101 34102 28
27282 34101 34103 28
27283 34101 34104 28
27284 34101 34105 28
27285 34106 34107 28
27286 34106 34108 28
27287 34106 34109 28
27288 34106 34110 28
27289 34111 34112 28
27290 34111 34113 28
27291 34111 34114 28
27292 34111 34115 28
27293 34116 34117 28
27294 34116 34118 28
27295 34116 34119 28
27296 34116 34120 28
27297 34121 34122 28
27298 34121 34123 28
27299 34121 34124 28
27300 34121 34125 28
27301 34126 34127 28
27302 34126 34128 28
27303 34126 34129 28
27304 34126 34130 28
27305 34131 34132 28
27306 34131 34133 28
27307 34131 34134 28
27308 34131 34135 28
27309 34136 34137 28
27310 34136 34138 28
27311 34136 34139 28
27312 34136 34140 28
27313 34141 34142 28
27314 34141 34143 28
27315 34141 34144 28
27316 34141 34145 28
27317 34146 34147 28
27318 34146 34148 28
27319 34146 34149 28
27320 34146 34150 28
27321 34151 34152 28
27322 34151 34153 28
27323 34151 34154 28
27324 34151 34155 28
27325 34156 34157 28
27326 34156 34158 28
27327 34156 34159 28
27328 34156 34160 28
27329 34161 34162 28
27330 34161 34163 28
27331 34161 34164 28
27332 34161 34165 28
27333 34166 34167 28
27334 34166 34168 28
27335 34166 34169 28
27336 34166 34170 28
27337 34171 34172 28
27338 34171 34173 28
27339 34171 34174 28
27340 34171 34175 28
27341 34176 34177 28
27342 34176 34178 28
27343 34176 34179 28
27344 34176 34180 28
27345 34181 34182 28
27346 34181 34183 28
27347 34181 34184 28
27348 34181 34185 28
27349 34186 34187 28
27350 34186 34188 28
27351 34186 34189 28
27352 34186 34190 28
27353 34191 34192 28
27354 34191 34193 28
27355 34191 34194 28
27356 34191 34195 28
27357 34196 34197 28
27358 34196 34198 28
27359 34196 34199 28
27360 34196 34200 28
27361 34201 34202 28
27362 34201 34203 28
27363 34201 34204 28
27364 34201 34205 28
27365 34206 34207 28
27366 34206 34208 28
27367 34206 34209 28
27368 34206 34210 28
27369 34211 34212 28
27370 34211 34213 28
27371 34211 34214 28
27372 34211 34215 28
27373 34216 34217 28
27374 34216 34218 28
27375 34216 34219 28
27376 34216 34220 28
27377 34221 34222 28
27378 34221 34223 28
27379 34221 34224 28
27380 34221 34225 28
27381 34226 34227 28
27382 34226 34228 28
27383 34226 34229 28
27384 34226 34230 28
27385 34231 34232 28
27386 34231 34233 28
27387 34231 34234 28
27388 34231 34235 28
27389 34236 34237 28
27390 34236 34238 28
27391 34236 34239 28
27392 34236 34240 28
27393 34241 34242 28
27394 34241 34243 28
27395 34241 34244 28
27396 34241 34245 28
27397 34246 34247 28
27398 34246 34248 28
27399 34246 34249 28
27400 34246 34250 28
27401 34251 34252 28
27402 34251 34253 28
27403 34251 34254 28
27404 34251 34255 28
27405 34256 34257 28
27406 34256 34258 28
27407 34256 34259 28
27408 34256 34260 28
27409 34261 34262 28
27410 34261 34263 28
27411 34261 34264 28
27412 34261 34265 28
27413 34266 34267 28
27414 34266 34268 28
27415 34266 34269 28
27416 34266 34270 28
27417 34271 34272 28
27418 34271 34273 28
27419 34271 34274 28
27420 34271 34275 28
27421 34276 34277 28
27422 34276 34278 28
27423 34276 34279 28
27424 34276 34280 28
27425 34281 34282 28
27426 34281 34283 28
27427 34281 34284 28
27428 34281 34285 28
27429 34286 34287 28
27430 34286 34288 28
27431 34286 34289 28
27432 34286 34290 28
27433 34291 34292 28
27434 34291 34293 28
27435 34291 34294 28
27436 34291 34295 28
27437 34296 34297 28
27438 34296 34298 28
27439 34296 34299 28
27440 34296 34300 28
27441 34301 34302 28
27442 34301 34303 28
27443 34301 34304 28
27444 34301 34305 28
27445 34306 34307 28
27446 34306 34308 28
27447 34306 34309 28
27448 34306 34310 28
27449 34311 34312 28
27450 34311 34313 28
27451 34311 34314 28
27452 34311 34315 28
27453 34316 34317 28
27454 34316 34318 28
27455 34316 34319 28
27456 34316 34320 28
27457 34321 34322 28
27458 34321 34323 28
27459 34321 34324 28
27460 34321 34325 28
27461 34326 34327 28
27462 34326 34328 28
27463 34326 34329 28
27464 34326 34330 28
27465 34331 34332 28
27466 34331 34333 28
27467 34331 34334 28
27468 34331 34335 28
27469 34336 34337 28
27470 34336 34338 28
27471 34336 34339 28
27472 34336 34340 28
27473 34341 34342 28
27474 34341 34343 28
27475 34341 34344 28
27476 34341 34345 28
27477 34346 34347 28
27478 34346 34348 28
27479 34346 34349 28
27480 34346 34350 28
27481 34351 34352 28
27482 34351 34353 28
27483 34351 34354 28
27484 34351 34355 28
27485 34356 34357 28
27486 34356 34358 28
27487 34356 34359 28
27488 34356 34360 28
27489 34361 34362 28
27490 34361 34363 28
27491 34361 34364 28
27492 34361 34365 28
27493 34366 34367 28
27494 34366 34368 28
27495 34366 34369 28
27496 34366 34370 28
27497 34371 34372 28
27498 34371 34373 28
27499 34371 34374 28
27500 34371 34375 28
27501 34376 34377 28
27502 34376 34378 28
27503 34376 34379 28
27504 34376 34380 28
27505 34381 34382 28
27506 34381 34383 28
27507 34381 34384 28
27508 34381 34385 28
27509 34386 34387 28
27510 34386 34388 28
27511 34386 34389 28
27512 34386 34390 28
27513 34391 34392 28
27514 34391 34393 28
27515 34391 34394 28
27516 34391 34395 28
27517 34396 34397 28
27518 34396 34398 28
27519 34396 34399 28
27520 34396 34400 28
27521 34401 34402 28
27522 34401 34403 28
27523 34401 34404 28
27524 34401 34405 28
27525 34406 34407 28
27526 34406 34408 28
27527 34406 34409 28
27528 34406 34410 28
27529 34411 34412 28
27530 34411 34413 28
27531 34411 34414 28
27532 34411 34415 28
27533 34416 34417 28
27534 34416 34418 28
27535 34416 34419 28
27536 34416 34420 28
27537 34421 34422 28
27538 34421 34423 28
27539 34421 34424 28
27540 34421 34425 28
27541 34426 34427 28
27542 34426 34428 28
27543 34426 34429 28
27544 34426 34430 28
27545 34431 34432 28
27546 34431 34433 28
27547 34431 34434 28
27548 34431 34435 28
27549 34436 34437 28
27550 34436 34438 28
27551 34436 34439 28
27552 34436 34440 28
27553 34441 34442 28
27554 34441 34443 28
27555 34441 34444 28
27556 34441 34445 28
27557 34446 34447 28
27558 34446 34448 28
27559 34446 34449 28
27560 34446 34450 28
27561 34451 34452 28
27562 34451 34453 28
27563 34451 34454 28
27564 34451 34455 28
27565 34456 34457 28
27566 34456 34458 28
27567 34456 34459 28
27568 34456 34460 28
27569 34461 34462 28
27570 34461 34463 28
27571 34461 34464 28
27572 34461 34465 28
27573 34466 34467 28
27574 34466 34468 28
27575 34466 34469 28
27576 34466 34470 28
27577 34471 34472 28
27578 34471 34473 28
27579 34471 34474 28
27580 34471 34475 28
27581 34476 34477 28
27582 34476 34478 28
27583 34476 34479 28
27584 34476 34480 28
27585 34481 34482 28
27586 34481 34483 28
27587 34481 34484 28
27588 34481 34485 28
27589 34486 34487 28
27590 34486 34488 28
27591 34486 34489 28
27592 34486 34490 28
27593 34491 34492 28
27594 34491 34493 28
27595 34491 34494 28
27596 34491 34495 28
27597 34496 34497 28
27598 34496 34498 28
27599 34496 34499 28
27600 34496 34500 28
27601 34501 34502 28
27602 34501 34503 28
27603 34501 34504 28
27604 34501 34505 28
27605 34506 34507 28
27606 34506 34508 28
27607 34506 34509 28
27608 34506 34510 28
27609 34511 34512 28
27610 34511 34513 28
27611 34511 34514 28
27612 34511 34515 28
27613 34516 34517 28
27614 34516 34518 28
27615 34516 34519 28
27616 34516 34520 28
27617 34521 34522 28
27618 34521 34523 28
27619 34521 34524 28
27620 34521 34525 28
27621 34526 34527 28
27622 34526 34528 28
27623 34526 34529 28
27624 34526 34530 28
27625 34531 34532 28
27626 34531 34533 28
27627 34531 34534 28
27628 34531 34535 28
27629 34536 34537 28
27630 34536 34538 28
27631 34536 34539 28
27632 34536 34540 28
27633 34541 34542 28
27634 34541 34543 28
27635 34541 34544 28
27636 34541 34545 28
27637 34546 34547 28
27638 34546 34548 28
27639 34546 34549 28
27640 34546 34550 28
27641 34551 34552 28
27642 34551 34553 28
27643 34551 34554 28
27644 34551 34555 28
27645 34556 34557 28
27646 34556 34558 28
27647 34556 34559 28
27648 34556 34560 28
27649 34561 34562 28
27650 34561 34563 28
27651 34561 34564 28
27652 34561 34565 28
27653 34566 34567 28
27654 34566 34568 28
27655 34566 34569 28
27656 34566 34570 28
27657 34571 34572 28
27658 34571 34573 28
27659 34571 34574 28
27660 34571 34575 28
27661 34576 34577 28
27662 34576 34578 28
27663 34576 34579 28
27664 34576 34580 28
27665 34581 34582 28
27666 34581 34583 28
27667 34581 34584 28
27668 34581 34585 28
27669 34586 34587 28
27670 34586 34588 28
27671 34586 34589 28
27672 34586 34590 28
27673 34591 34592 28
27674 34591 34593 28
27675 34591 34594 28
27676 34591 34595 28
27677 34596 34597 28
27678 34596 34598 28
27679 34596 34599 28
27680 34596 34600 28
27681 34601 34602 28
27682 34601 34603 28
27683 34601 34604 28
27684 34601 34605 28
27685 34606 34607 28
27686 34606 34608 28
27687 34606 34609 28
27688 34606 34610 28
27689 34611 34612 28
27690 34611 34613 28
27691 34611 34614 28
27692 34611 34615 28
27693 34616 34617 28
27694 34616 34618 28
27695 34616 34619 28
27696 34616 34620 28
27697 34621 34622 28
27698 34621 34623 28
27699 34621 34624 28
27700 34621 34625 28
27701 34626 34627 28
27702 34626 34628 28
27703 34626 34629 28
27704 34626 34630 28
27705 34631 34632 28
27706 34631 34633 28
27707 34631 34634 28
27708 34631 34635 28
27709 34636 34637 28
27710 34636 34638 28
27711 34636 34639 28
27712 34636 34640 28
27713 34641 34642 28
27714 34641 34643 28
27715 34641 34644 28
27716 34641 34645 28
27717 34646 34647 28
27718 34646 34648 28
27719 34646 34649 28
27720 34646 34650 28
27721 34651 34652 28
27722 34651 34653 28
27723 34651 34654 28
27724 34651 34655 28
27725 34656 34657 28
27726 34656 34658 28
27727 34656 34659 28
27728 34656 34660 28
27729 34661 34662 28
27730 34661 34663 28
27731 34661 34664 28
27732 34661 34665 28
27733 34666 34667 28
27734 34666 34668 28
27735 34666 34669 28
27736 34666 34670 28
27737 34671 34672 28
27738 34671 34673 28
27739 34671 34674 28
27740 34671 34675 28
27741 34676 34677 28
27742 34676 34678 28
27743 34676 34679 28
27744 34676 34680 28
27745 34681 34682 28
27746 34681 34683 28
27747 34681 34684 28
27748 34681 34685 28
27749 34686 34687 28
27750 34686 34688 28
27751 34686 34689 28
27752 34686 34690 28
27753 34691 34692 28
27754 34691 34693 28
27755 34691 34694 28
27756 34691 34695 28
27757 34696 34697 28
27758 34696 34698 28
27759 34696 34699 28
27760 34696 34700 28
27761 34701 34702 28
27762 34701 34703 28
27763 34701 34704 28
27764 34701 34705 28
27765 34706 34707 28
27766 34706 34708 28
27767 34706 34709 28
27768 34706 34710 28
27769 34711 34712 28
27770 34711 34713 28
27771 34711 34714 28
27772 34711 34715 28
27773 34716 34717 28
27774 34716 34718 28
27775 34716 34719 28
27776 34716 34720 28
27777 34721 34722 28
27778 34721 34723 28
27779 34721 34724 28
27780 34721 34725 28
27781 34726 34727 28
27782 34726 34728 28
27783 34726 34729 28
27784 34726 34730 28
27785 34731 34732 28
27786 34731 34733 28
27787 34731 34734 28
27788 34731 34735 28
27789 34736 34737 28
27790 34736 34738 28
27791 34736 34739 28
27792 34736 34740 28
27793 34741 34742 28
27794 34741 34743 28
27795 34741 34744 28
27796 34741 34745 28
27797 34746 34747 28
27798 34746 34748 28
27799 34746 34749 28
27800 34746 34750 28
27801 34751 34752 28
27802 34751 34753 28
27803 34751 34754 28
27804 34751 34755 28
27805 34756 34757 28
27806 34756 34758 28
27807 34756 34759 28
27808 34756 34760 28
27809 34761 34762 28
27810 34761 34763 28
27811 34761 34764 28
27812 34761 34765 28
27813 34766 34767 28
27814 34766 34768 28
27815 34766 34769 28
27816 34766 34770 28
27817 34771 34772 28
27818 34771 34773 28
27819 34771 34774 28
27820 34771 34775 28
27821 34776 34777 28
27822 34776 34778 28
27823 34776 34779 28
27824 34776 34780 28
27825 34781 34782 28
27826 34781 34783 28
27827 34781 34784 28
27828 34781 34785 28
27829 34786 34787 28
27830 34786 34788 28
27831 34786 34789 28
27832 34786 34790 28
27833 34791 34792 28
27834 34791 34793 28
27835 34791 34794 28
27836 34791 34795 28
27837 34796 34797 28
27838 34796 34798 28
27839 34796 34799 28
27840 34796 34800 28
27841 34801 34802 28
27842 34801 34803 28
27843 34801 34804 28
27844 34801 34805 28
27845 34806 34807 28
27846 34806 34808 28
27847 34806 34809 28
27848 34806 34810 28
27849 34811 34812 28
27850 34811 34813 28
27851 34811 34814 28
27852 34811 34815 28
27853 34816 34817 28
27854 34816 34818 28
27855 34816 34819 28
27856 34816 34820 28
27857 34821 34822 28
27858 34821 34823 28
27859 34821 34824 28
27860 34821 34825 28
27861 34826 34827 28
27862 34826 34828 28
27863 34826 34829 28
27864 34826 34830 28
27865 34831 34832 28
27866 34831 34833 28
27867 34831 34834 28
27868 34831 34835 28
27869 34836 34837 28
27870 34836 34838 28
27871 34836 34839 28
27872 34836 34840 28
27873 34841 34842 28
27874 34841 34843 28
27875 34841 34844 28
27876 34841 34845 28
27877 34846 34847 28
27878 34846 34848 28
27879 34846 34849 28
27880 34846 34850 28
27881 34851 34852 28
27882 34851 34853 28
27883 34851 34854 28
27884 34851 34855 28
27885 34856 34857 28
27886 34856 34858 28
27887 34856 34859 28
27888 34856 34860 28
27889 34861 34862 28
27890 34861 34863 28
27891 34861 34864 28
27892 34861 34865 28
27893 34866 34867 28
27894 34866 34868 28
27895 34866 34869 28
27896 34866 34870 28
27897 34871 34872 28
27898 34871 34873 28
27899 34871 34874 28
27900 34871 34875 28
27901 34876 34877 28
27902 34876 34878 28
27903 34876 34879 28
27904 34876 34880 28
27905 34881 34882 28
27906 34881 34883 28
27907 34881 34884 28
27908 34881 34885 28
27909 34886 34887 28
27910 34886 34888 28
27911 34886 34889 28
27912 34886 34890 28
27913 34891 34892 28
27914 34891 34893 28
27915 34891 34894 28
27916 34891 34895 28
27917 34896 34897 28
27918 34896 34898 28
27919 34896 34899 28
27920 34896 34900 28
27921 34901 34902 28
27922 34901 34903 28
27923 34901 34904 28
27924 34901 34905 28
27925 34906 34907 28
27926 34906 34908 28
27927 34906 34909 28
27928 34906 34910 28
27929 34911 34912 28
27930 34911 34913 28
27931 34911 34914 28
27932 34911 34915 28
27933 34916 34917 28
27934 34916 34918 28
27935 34916 34919 28
27936 34916 34920 28
27937 34921 34922 28
27938 34921 34923 28
27939 34921 34924 28
27940 34921 34925 28
27941 34926 34927 28
27942 34926 34928 28
27943 34926 34929 28
27944 34926 34930 28
27945 34931 34932 28
27946 34931 34933 28
27947 34931 34934 28
27948 34931 34935 28
27949 34936 34937 28
27950 34936 34938 28
27951 34936 34939 28
27952 34936 34940 28
27953 34941 34942 28
27954 34941 34943 28
27955 34941 34944 28
27956 34941 34945 28
27957 34946 34947 28
27958 34946 34948 28
27959 34946 34949 28
27960 34946 34950 28
27961 34951 34952 28
27962 34951 34953 28
27963 34951 34954 28
27964 34951 34955 28
27965 34956 34957 28
27966 34956 34958 28
27967 34956 34959 28
27968 34956 34960 28
27969 34961 34962 28
27970 34961 34963 28
27971 34961 34964 28
27972 34961 34965 28
27973 34966 34967 28
27974 34966 34968 28
27975 34966 34969 28
27976 34966 34970 28
27977 34971 34972 28
27978 34971 34973 28
27979 34971 34974 28
27980 34971 34975 28
27981 34976 34977 28
27982 34976 34978 28
27983 34976 34979 28
27984 34976 34980 28
27985 34981 34982 28
27986 34981 34983 28
27987 34981 34984 28
27988 34981 34985 28
27989 34986 34987 28
27990 34986 34988 28
27991 34986 34989 28
27992 34986 34990 28
27993 34991 34992 28
27994 34991 34993 28
27995 34991 34994 28
27996 34991 34995 28
27997 34996 34997 28
27998 34996 34998 28
27999 34996 34999 28
28000 34996 35000 28
28001 35001 35002 28
28002 35001 35003 28
28003 35001 35004 28
28004 35001 35005 28
28005 35006 35007 28
28006 35006 35008 28
28007 35006 35009 28
28008 35006 35010 28
28009 35011 35012 28
28010 35011 35013 28
28011 35011 35014 28
28012 35011 35015 28
28013 35016 35017 28
28014 35016 35018 28
28015 35016 35019 28
28016 35016 35020 28
28017 35021 35022 28
28018 35021 35023 28
28019 35021 35024 28
28020 35021 35025 28
28021 35026 35027 28
28022 35026 35028 28
28023 35026 35029 28
28024 35026 35030 28
28025 35031 35032 28
28026 35031 35033 28
28027 35031 35034 28
28028 35031 35035 28
28029 35036 35037 28
28030 35036 35038 28
28031 35036 35039 28
28032 35036 35040 28
28033 35041 35042 28
28034 35041 35043 28
28035 35041 35044 28
28036 35041 35045 28
28037 35046 35047 28
28038 35046 35048 28
28039 35046 35049 28
28040 35046 35050 28
28041 35051 35052 28
28042 35051 35053 28
28043 35051 35054 28
28044 35051 35055 28
28045 35056 35057 28
28046 35056 35058 28
28047 35056 35059 28
28048 35056 35060 28
28049 35061 35062 28
28050 35061 35063 28
28051 35061 35064 28
28052 35061 35065 28
28053 35066 35067 28
28054 35066 35068 28
28055 35066 35069 28
28056 35066 35070 28
28057 35071 35072 28
28058 35071 35073 28
28059 35071 35074 28
28060 35071 35075 28
28061 35076 35077 28
28062 35076 35078 28
28063 35076 35079 28
28064 35076 35080 28
28065 35081 35082 28
28066 35081 35083 28
28067 35081 35084 28
28068 35081 35085 28
28069 35086 35087 28
28070 35086 35088 28
28071 35086 35089 28
28072 35086 35090 28
28073 35091 35092 28
28074 35091 35093 28
28075 35091 35094 28
28076 35091 35095 28
28077 35096 35097 28
28078 35096 35098 28
28079 35096 35099 28
28080 35096 35100 28
28081 35101 35102 28
28082 35101 35103 28
28083 35101 35104 28
28084 35101 35105 28
28085 35106 35107 28
28086 35106 35108 28
28087 35106 35109 28
28088 35106 35110 28
28089 35111 35112 28
28090 35111 35113 28
28091 35111 35114 28
28092 35111 35115 28
28093 35116 35117 28
28094 35116 35118 28
28095 35116 35119 28
28096 35116 35120 28
28097 35121 35122 28
28098 35121 35123 28
28099 35121 35124 28
28100 35121 35125 28
28101 35126 35127 28
28102 35126 35128 28
28103 35126 35129 28
28104 35126 35130 28
28105 35131 35132 28
28106 35131 35133 28
28107 35131 35134 28
28108 35131 35135 28
28109 35136 35137 28
28110 35136 35138 28
28111 35136 35139 28
28112 35136 35140 28
28113 35141 35142 28
28114 35141 35143 28
28115 35141 35144 28
28116 35141 35145 28
28117 35146 35147 28
28118 35146 35148 28
28119 35146 35149 28
28120 35146 35150 28
28121 35151 35152 28
28122 35151 35153 28
28123 35151 35154 28
28124 35151 35155 28
28125 35156 35157 28
28126 35156 35158 28
28127 35156 35159 28
28128 35156 35160 28
28129 35161 35162 28
28130 35161 35163 28
28131 35161 35164 28
28132 35161 35165 28
28133 35166 35167 28
28134 35166 35168 28
28135 35166 35169 28
28136 35166 35170 28
28137 35171 35172 28
28138 35171 35173 28
28139 35171 35174 28
28140 35171 35175 28
28141 35176 35177 28
28142 35176 35178 28
28143 35176 35179 28
28144 35176 35180 28
28145 35181 35182 28
28146 35181 35183 28
28147 35181 35184 28
28148 35181 35185 28
28149 35186 35187 28
28150 35186 35188 28
28151 35186 35189 28
28152 35186 35190 28
28153 35191 35192 28
28154 35191 35193 28
28155 35191 35194 28
28156 35191 35195 28
28157 35196 35197 28
28158 35196 35198 28
28159 35196 35199 28
28160 35196 35200 28
28161 35201 35202 28
28162 35201 35203 28
28163 35201 35204 28
28164 35201 35205 28
28165 35206 35207 28
28166 35206 35208 28
28167 35206 35209 28
28168 35206 35210 28
28169 35211 35212 28
28170 35211 35213 28
28171 35211 35214 28
28172 35211 35215 28
28173 35216 35217 28
28174 35216 35218 28
28175 35216 35219 28
28176 35216 35220 28
28177 35221 35222 28
28178 35221 35223 28
28179 35221 35224 28
28180 35221 35225 28
28181 35226 35227 28
28182 35226 35228 28
28183 35226 35229 28
28184 35226 35230 28
28185 35231 35232 28
28186 35231 35233 28
28187 35231 35234 28
28188 35231 35235 28
28189 35236 35237 28
28190 35236 35238 28
28191 35236 35239 28
28192 35236 35240 28
28193 35241 35242 28
28194 35241 35243 28
28195 35241 35244 28
28196 35241 35245 28
28197 35246 35247 28
28198 35246 35248 28
28199 35246 35249 28
28200 35246 35250 28
28201 35251 35252 28
28202 35251 35253 28
28203 35251 35254 28
28204 35251 35255 28
28205 35256 35257 28
28206 35256 35258 28
28207 35256 35259 28
28208 35256 35260 28
28209 35261 35262 28
28210 35261 35263 28
28211 35261 35264 28
28212 35261 35265 28
28213 35266 35267 28
28214 35266 35268 28
28215 35266 35269 28
28216 35266 35270 28
28217 35271 35272 28
28218 35271 35273 28
28219 35271 35274 28
28220 35271 35275 28
28221 35276 35277 28
28222 35276 35278 28
28223 35276 35279 28
28224 35276 35280 28
28225 35281 35282 28
28226 35281 35283 28
28227 35281 35284 28
28228 35281 35285 28
28229 35286 35287 28
28230 35286 35288 28
28231 35286 35289 28
28232 35286 35290 28
28233 35291 35292 28
28234 35291 35293 28
28235 35291 35294 28
28236 35291 35295 28
28237 35296 35297 28
28238 35296 35298 28
28239 35296 35299 28
28240 35296 35300 28
28241 35301 35302 28
28242 35301 35303 28
28243 35301 35304 28
28244 35301 35305 28
28245 35306 35307 28
28246 35306 35308 28
28247 35306 35309 28
28248 35306 35310 28
28249 35311 35312 28
28250 35311 35313 28
28251 35311 35314 28
28252 35311 35315 28
28253 35316 35317 28
28254 35316 35318 28
28255 35316 35319 28
28256 35316 35320 28
28257 35321 35322 28
28258 35321 35323 28
28259 35321 35324 28
28260 35321 35325 28
28261 35326 35327 28
28262 35326 35328 28
28263 35326 35329 28
28264 35326 35330 28
28265 35331 35332 28
28266 35331 35333 28
28267 35331 35334 28
28268 35331 35335 28
28269 35336 35337 28
28270 35336 35338 28
28271 35336 35339 28
28272 35336 35340 28
28273 35341 35342 28
28274 35341 35343 28
28275 35341 35344 28
28276 35341 35345 28
28277 35346 35347 28
28278 35346 35348 28
28279 35346 35349 28
28280 35346 35350 28
28281 35351 35352 28
28282 35351 35353 28
28283 35351 35354 28
28284 35351 35355 28
28285 35356 35357 28
28286 35356 35358 28
28287 35356 35359 28
28288 35356 35360 28
28289 35361 35362 28
28290 35361 35363 28
28291 35361 35364 28
28292 35361 35365 28
28293 35366 35367 28
28294 35366 35368 28
28295 35366 35369 28
28296 35366 35370 28
28297 35371 35372 28
28298 35371 35373 28
28299 35371 35374 28
28300 35371 35375 28
28301 35376 35377 28
28302 35376 35378 28
28303 35376 35379 28
28304 35376 35380 28
28305 35381 35382 28
28306 35381 35383 28
28307 35381 35384 28
28308 35381 35385 28
28309 35386 35387 28
28310 35386 35388 28
28311 35386 35389 28
28312 35386 35390 28
28313 35391 35392 28
28314 35391 35393 28
28315 35391 35394 28
28316 35391 35395 28
28317 35396 35397 28
28318 35396 35398 28
28319 35396 35399 28
28320 35396 35400 28
28321 35401 35402 28
28322 35401 35403 28
28323 35401 35404 28
28324 35401 35405 28
28325 35406 35407 28
28326 35406 35408 28
28327 35406 35409 28
28328 35406 35410 28
28329 35411 35412 28
28330 35411 35413 28
28331 35411 35414 28
28332 35411 35415 28
28333 35416 35417 28
28334 35416 35418 28
28335 35416 35419 28
28336 35416 35420 28
28337 35421 35422 28
28338 35421 35423 28
28339 35421 35424 28
28340 35421 35425 28
28341 35426 35427 28
28342 35426 35428 28
28343 35426 35429 28
28344 35426 35430 28
28345 35431 35432 28
28346 35431 35433 28
28347 35431 35434 28
28348 35431 35435 28
28349 35436 35437 28
28350 35436 35438 28
28351 35436 35439 28
28352 35436 35440 28
28353 35441 35442 28
28354 35441 35443 28
28355 35441 35444 28
28356 35441 35445 28
28357 35446 35447 28
28358 35446 35448 28
28359 35446 35449 28
28360 35446 35450 28
28361 35451 35452 28
28362 35451 35453 28
28363 35451 35454 28
28364 35451 35455 28
28365 35456 35457 28
28366 35456 35458 28
28367 35456 35459 28
28368 35456 35460 28
28369 35461 35462 28
28370 35461 35463 28
28371 35461 35464 28
28372 35461 35465 28
28373 35466 35467 28
28374 35466 35468 28
28375 35466 35469 28
28376 35466 35470 28
28377 35471 35472 28
28378 35471 35473 28
28379 35471 35474 28
28380 35471 35475 28
28381 35476 35477 28
28382 35476 35478 28
28383 35476 35479 28
28384 35476 35480 28
28385 35481 35482 28
28386 35481 35483 28
28387 35481 35484 28
28388 35481 35485 28
28389 35486 35487 28
28390 35486 35488 28
28391 35486 35489 28
28392 35486 35490 28
28393 35491 35492 28
28394 35491 35493 28
28395 35491 35494 28
28396 35491 35495 28
28397 35496 35497 28
28398 35496 35498 28
28399 35496 35499 28
28400 35496 35500 28
28401 35501 35502 28
28402 35501 35503 28
28403 35501 35504 28
28404 35501 35505 28
28405 35506 35507 28
28406 35506 35508 28
28407 35506 35509 28
28408 35506 35510 28
28409 35511 35512 28
28410 35511 35513 28
28411 35511 35514 28
28412 35511 35515 28
28413 35516 35517 28
28414 35516 35518 28
28415 35516 35519 28
28416 35516 35520 28
28417 35521 35522 28
28418 35521 35523 28
28419 35521 35524 28
28420 35521 35525 28
28421 35526 35527 28
28422 35526 35528 28
28423 35526 35529 28
28424 35526 35530 28
28425 35531 35532 28
28426 35531 35533 28
28427 35531 35534 28
28428 35531 35535 28
28429 35536 35537 28
28430 35536 35538 28
28431 35536 35539 28
28432 35536 35540 28
28433 35541 35542 28
28434 35541 35543 28
28435 35541 35544 28
28436 35541 35545 28
28437 35546 35547 28
28438 35546 35548 28
28439 35546 35549 28
28440 35546 35550 28
28441 35551 35552 28
28442 35551 35553 28
28443 35551 35554 28
28444 35551 35555 28
28445 35556 35557 28
28446 35556 35558 28
28447 35556 35559 28
28448 35556 35560 28
28449 35561 35562 28
28450 35561 35563 28
28451 35561 35564 28
28452 35561 35565 28
28453 35566 35567 28
28454 35566 35568 28
28455 35566 35569 28
28456 35566 35570 28
28457 35571 35572 28
28458 35571 35573 28
28459 35571 35574 28
28460 35571 35575 28
28461 35576 35577 28
28462 35576 35578 28
28463 35576 35579 28
28464 35576 35580 28
28465 35581 35582 28
28466 35581 35583 28
28467 35581 35584 28
28468 35581 35585 28
28469 35586 35587 28
28470 35586 35588 28
28471 35586 35589 28
28472 35586 35590 28
28473 35591 35592 28
28474 35591 35593 28
28475 35591 35594 28
28476 35591 35595 28
28477 35596 35597 28
28478 35596 35598 28
28479 35596 35599 28
28480 35596 35600 28
28481 35601 35602 28
28482 35601 35603 28
28483 35601 35604 28
28484 35601 35605 28
28485 35606 35607 28
28486 35606 35608 28
28487 35606 35609 28
28488 35606 35610 28
28489 35611 35612 28
28490 35611 35613 28
28491 35611 35614 28
28492 35611 35615 28
28493 35616 35617 28
28494 35616 35618 28
28495 35616 35619 28
28496 35616 35620 28
28497 35621 35622 28
28498 35621 35623 28
28499 35621 35624 28
28500 35621 35625 28
28501 35626 35627 28
28502 35626 35628 28
28503 35626 35629 28
28504 35626 35630 28
28505 35631 35632 28
28506 35631 35633 28
28507 35631 35634 28
28508 35631 35635 28
28509 35636 35637 28
28510 35636 35638 28
28511 35636 35639 28
28512 35636 35640 28
28513 35641 35642 28
28514 35641 35643 28
28515 35641 35644 28
28516 35641 35645 28
28517 35646 35647 28
28518 35646 35648 28
28519 35646 35649 28
28520 35646 35650 28
28521 35651 35652 28
28522 35651 35653 28
28523 35651 35654 28
28524 35651 35655 28
28525 35656 35657 28
28526 35656 35658 28
28527 35656 35659 28
28528 35656 35660 28
28529 35661 35662 28
28530 35661 35663 28
28531 35661 35664 28
28532 35661 35665 28
28533 35666 35667 28
28534 35666 35668 28
28535 35666 35669 28
28536 35666 35670 28
28537 35671 35672 28
28538 35671 35673 28
28539 35671 35674 28
28540 35671 35675 28
28541 35676 35677 28
28542 35676 35678 28
28543 35676 35679 28
28544 35676 35680 28
28545 35681 35682 28
28546 35681 35683 28
28547 35681 35684 28
28548 35681 35685 28
28549 35686 35687 28
28550 35686 35688 28
28551 35686 35689 28
28552 35686 35690 28
28553 35691 35692 28
28554 35691 35693 28
28555 35691 35694 28
28556 35691 35695 28
28557 35696 35697 28
28558 35696 35698 28
28559 35696 35699 28
28560 35696 35700 28
28561 35701 35702 28
28562 35701 35703 28
28563 35701 35704 28
28564 35701 35705 28
28565 35706 35707 28
28566 35706 35708 28
28567 35706 35709 28
28568 35706 35710 28
28569 35711 35712 28
28570 35711 35713 28
28571 35711 35714 28
28572 35711 35715 28
28573 35716 35717 28
28574 35716 35718 28
28575 35716 35719 28
28576 35716 35720 28
28577 35721 35722 28
28578 35721 35723 28
28579 35721 35724 28
28580 35721 35725 28
28581 35726 35727 28
28582 35726 35728 28
28583 35726 35729 28
28584 35726 35730 28
28585 35731 35732 28
28586 35731 35733 28
28587 35731 35734 28
28588 35731 35735 28
28589 35736 35737 28
28590 35736 35738 28
28591 35736 35739 28
28592 35736 35740 28
28593 35741 35742 28
28594 35741 35743 28
28595 35741 35744 28
28596 35741 35745 28
28597 35746 35747 28
28598 35746 35748 28
28599 35746 35749 28
28600 35746 35750 28
28601 35751 35752 28
28602 35751 35753 28
28603 35751 35754 28
28604 35751 35755 28
28605 35756 35757 28
28606 35756 35758 28
28607 35756 35759 28
28608 35756 35760 28
28609 35761 35762 28
28610 35761 35763 28
28611 35761 35764 28
28612 35761 35765 28
28613 35766 35767 28
28614 35766 35768 28
28615 35766 35769 28
28616 35766 35770 28
28617 35771 35772 28
28618 35771 35773 28
28619 35771 35774 28
28620 35771 35775 28
28621 35776 35777 28
28622 35776 35778 28
28623 35776 35779 28
28624 35776 35780 28
28625 35781 35782 28
28626 35781 35783 28
28627 35781 35784 28
28628 35781 35785 28
28629 35786 35787 28
28630 35786 35788 28
28631 35786 35789 28
28632 35786 35790 28
28633 35791 35792 28
28634 35791 35793 28
28635 35791 35794 28
28636 35791 35795 28
28637 35796 35797 28
28638 35796 35798 28
28639 35796 35799 28
28640 35796 35800 28
28641 35801 35802 28
28642 35801 35803 28
28643 35801 35804 28
28644 35801 35805 28
28645 35806 35807 28
28646 35806 35808 28
28647 35806 35809 28
28648 35806 35810 28
28649 35811 35812 28
28650 35811 35813 28
28651 35811 35814 28
28652 35811 35815 28
28653 35816 35817 28
28654 35816 35818 28
28655 35816 35819 28
28656 35816 35820 28
28657 35821 35822 28
28658 35821 35823 28
28659 35821 35824 28
28660 35821 35825 28
28661 35826 35827 28
28662 35826 35828 28
28663 35826 35829 28
28664 35826 35830 28
28665 35831 35832 28
28666 35831 35833 28
28667 35831 35834 28
28668 35831 35835 28
28669 35836 35837 28
28670 35836 35838 28
28671 35836 35839 28
28672 35836 35840 28
28673 35841 35842 28
28674 35841 35843 28
28675 35841 35844 28
28676 35841 35845 28
28677 35846 35847 28
28678 35846 35848 28
28679 35846 35849 28
28680 35846 35850 28
28681 35851 35852 28
28682 35851 35853 28
28683 35851 35854 28
28684 35851 35855 28
28685 35856 35857 28
28686 35856 35858 28
28687 35856 35859 28
28688 35856 35860 28
28689 35861 35862 28
28690 35861 35863 28
28691 35861 35864 28
28692 35861 35865 28
28693 35866 35867 28
28694 35866 35868 28
28695 35866 35869 28
28696 35866 35870 28
28697 35871 35872 28
28698 35871 35873 28
28699 35871 35874 28
28700 35871 35875 28
28701 35876 35877 28
28702 35876 35878 28
28703 35876 35879 28
28704 35876 35880 28
28705 35881 35882 28
28706 35881 35883 28
28707 35881 35884 28
28708 35881 35885 28
28709 35886 35887 28
28710 35886 35888 28
28711 35886 35889 28
28712 35886 35890 28
28713 35891 35892 28
28714 35891 35893 28
28715 35891 35894 28
28716 35891 35895 28
28717 35896 35897 28
28718 35896 35898 28
28719 35896 35899 28
28720 35896 35900 28
28721 35901 35902 28
28722 35901 35903 28
28723 35901 35904 28
28724 35901 35905 28
28725 35906 35907 28
28726 35906 35908 28
28727 35906 35909 28
28728 35906 35910 28
28729 35911 35912 28
28730 35911 35913 28
28731 35911 35914 28
28732 35911 35915 28
28733 35916 35917 28
28734 35916 35918 28
28735 35916 35919 28
28736 35916 35920 28
28737 35921 35922 28
28738 35921 35923 28
28739 35921 35924 28
28740 35921 35925 28
28741 35926 35927 28
28742 35926 35928 28
28743 35926 35929 28
28744 35926 35930 28
28745 35931 35932 28
28746 35931 35933 28
28747 35931 35934 28
28748 35931 35935 28
28749 35936 35937 28
28750 35936 35938 28
28751 35936 35939 28
28752 35936 35940 28
28753 35941 35942 28
28754 35941 35943 28
28755 35941 35944 28
28756 35941 35945 28
28757 35946 35947 28
28758 35946 35948 28
28759 35946 35949 28
28760 35946 35950 28
28761 35951 35952 28
28762 35951 35953 28
28763 35951 35954 28
28764 35951 35955 28
28765 35956 35957 28
28766 35956 35958 28
28767 35956 35959 28
28768 35956 35960 28
28769 35961 35962 28
28770 35961 35963 28
28771 35961 35964 28
28772 35961 35965 28
28773 35966 35967 28
28774 35966 35968 28
28775 35966 35969 28
28776 35966 35970 28
28777 35971 35972 28
28778 35971 35973 28
28779 35971 35974 28
28780 35971 35975 28
28781 35976 35977 28
28782 35976 35978 28
28783 35976 35979 28
28784 35976 35980 28
28785 35981 35982 28
28786 35981 35983 28
28787 35981 35984 28
28788 35981 35985 28
28789 35986 35987 28
28790 35986 35988 28
28791 35986 35989 28
28792 35986 35990 28
28793 35991 35992 28
28794 35991 35993 28
28795 35991 35994 28
28796 35991 35995 28
28797 35996 35997 28
28798 35996 35998 28
28799 35996 35999 28
28800 35996 36000 28
28801 36001 36002 28
28802 36001 36003 28
28803 36001 36004 28
28804 36001 36005 28
28805 36006 36007 28
28806 36006 36008 28
28807 36006 36009 28
28808 36006 36010 28
28809 36011 36012 28
28810 36011 36013 28
28811 36011 36014 28
28812 36011 36015 28
28813 36016 36017 28
28814 36016 36018 28
28815 36016 36019 28
28816 36016 36020 28
28817 36021 36022 28
28818 36021 36023 28
28819 36021 36024 28
28820 36021 36025 28
28821 36026 36027 28
28822 36026 36028 28
28823 36026 36029 28
28824 36026 36030 28
28825 36031 36032 28
28826 36031 36033 28
28827 36031 36034 28
28828 36031 36035 28
28829 36036 36037 28
28830 36036 36038 28
28831 36036 36039 28
28832 36036 36040 28
28833 36041 36042 28
28834 36041 36043 28
28835 36041 36044 28
28836 36041 36045 28
28837 36046 36047 28
28838 36046 36048 28
28839 36046 36049 28
28840 36046 36050 28
28841 36051 36052 28
28842 36051 36053 28
28843 36051 36054 28
28844 36051 36055 28
28845 36056 36057 28
28846 36056 36058 28
28847 36056 36059 28
28848 36056 36060 28
28849 36061 36062 28
28850 36061 36063 28
28851 36061 36064 28
28852 36061 36065 28
28853 36066 36067 28
28854 36066 36068 28
28855 36066 36069 28
28856 36066 36070 28
28857 36071 36072 28
28858 36071 36073 28
28859 36071 36074 28
28860 36071 36075 28
28861 36076 36077 28
28862 36076 36078 28
28863 36076 36079 28
28864 36076 36080 28
28865 36081 36082 28
28866 36081 36083 28
28867 36081 36084 28
28868 36081 36085 28
28869 36086 36087 28
28870 36086 36088 28
28871 36086 36089 28
28872 36086 36090 28
28873 36091 36092 28
28874 36091 36093 28
28875 36091 36094 28
28876 36091 36095 28
28877 36096 36097 28
28878 36096 36098 28
28879 36096 36099 28
28880 36096 36100 28
28881 36101 36102 28
28882 36101 36103 28
28883 36101 36104 28
28884 36101 36105 28
28885 36106 36107 28
28886 36106 36108 28
28887 36106 36109 28
28888 36106 36110 28
28889 36111 36112 28
28890 36111 36113 28
28891 36111 36114 28
28892 36111 36115 28
28893 36116 36117 28
28894 36116 36118 28
28895 36116 36119 28
28896 36116 36120 28
28897 36121 36122 28
28898 36121 36123 28
28899 36121 36124 28
28900 36121 36125 28
28901 36126 36127 28
28902 36126 36128 28
28903 36126 36129 28
28904 36126 36130 28
28905 36131 36132 28
28906 36131 36133 28
28907 36131 36134 28
28908 36131 36135 28
28909 36136 36137 28
28910 36136 36138 28
28911 36136 36139 28
28912 36136 36140 28
28913 36141 36142 28
28914 36141 36143 28
28915 36141 36144 28
28916 36141 36145 28
28917 36146 36147 28
28918 36146 36148 28
28919 36146 36149 28
28920 36146 36150 28
28921 36151 36152 28
28922 36151 36153 28
28923 36151 36154 28
28924 36151 36155 28
28925 36156 36157 28
28926 36156 36158 28
28927 36156 36159 28
28928 36156 36160 28
28929 36161 36162 28
28930 36161 36163 28
28931 36161 36164 28
28932 36161 36165 28
28933 36166 36167 28
28934 36166 36168 28
28935 36166 36169 28
28936 36166 36170 28
28937 36171 36172 28
28938 36171 36173 28
28939 36171 36174 28
28940 36171 36175 28
28941 36176 36177 28
28942 36176 36178 28
28943 36176 36179 28
28944 36176 36180 28
28945 36181 36182 28
28946 36181 36183 28
28947 36181 36184 28
28948 36181 36185 28
28949 36186 36187 28
28950 36186 36188 28
28951 36186 36189 28
28952 36186 36190 28
28953 36191 36192 28
28954 36191 36193 28
28955 36191 36194 28
28956 36191 36195 28
28957 36196 36197 28
28958 36196 36198 28
28959 36196 36199 28
28960 36196 36200 28
28961 36201 36202 28
28962 36201 36203 28
28963 36201 36204 28
28964 36201 36205 28
28965 36206 36207 28
28966 36206 36208 28
28967 36206 36209 28
28968 36206 36210 28
28969 36211 36212 28
28970 36211 36213 28
28971 36211 36214 28
28972 36211 36215 28
28973 36216 36217 28
28974 36216 36218 28
28975 36216 36219 28
28976 36216 36220 28
28977 36221 36222 28
28978 36221 36223 28
28979 36221 36224 28
28980 36221 36225 28
28981 36226 36227 28
28982 36226 36228 28
28983 36226 36229 28
28984 36226 36230 28
28985 36231 36232 28
28986 36231 36233 28
28987 36231 36234 28
28988 36231 36235 28
28989 36236 36237 28
28990 36236 36238 28
28991 36236 36239 28
28992 36236 36240 28
28993 36241 36242 28
28994 36241 36243 28
28995 36241 36244 28
28996 36241 36245 28
28997 36246 36247 28
28998 36246 36248 28
28999 36246 36249 28
29000 36246 36250 28
29001 36251 36252 28
29002 36251 36253 28
29003 36251 36254 28
29004 36251 36255 28
29005 36256 36257 28
29006 36256 36258 28
29007 36256 36259 28
29008 36256 36260 28
29009 36261 36262 28
29010 36261 36263 28
29011 36261 36264 28
29012 36261 36265 28
29013 36266 36267 28
29014 36266 36268 28
29015 36266 36269 28
29016 36266 36270 28
29017 36271 36272 28
29018 36271 36273 28
29019 36271 36274 28
29020 36271 36275 28
29021 36276 36277 28
29022 36276 36278 28
29023 36276 36279 28
29024 36276 36280 28
29025 36281 36282 28
29026 36281 36283 28
29027 36281 36284 28
29028 36281 36285 28
29029 36286 36287 28
29030 36286 36288 28
29031 36286 36289 28
29032 36286 36290 28
29033 36291 36292 28
29034 36291 36293 28
29035 36291 36294 28
29036 36291 36295 28
29037 36296 36297 28
29038 36296 36298 28
29039 36296 36299 28
29040 36296 36300 28
29041 36301 36302 28
29042 36301 36303 28
29043 36301 36304 28
29044 36301 36305 28
29045 36306 36307 28
29046 36306 36308 28
29047 36306 36309 28
29048 36306 36310 28
29049 36311 36312 28
29050 36311 36313 28
29051 36311 36314 28
29052 36311 36315 28
29053 36316 36317 28
29054 36316 36318 28
29055 36316 36319 28
29056 36316 36320 28
29057 36321 36322 28
29058 36321 36323 28
29059 36321 36324 28
29060 36321 36325 28
29061 36326 36327 28
29062 36326 36328 28
29063 36326 36329 28
29064 36326 36330 28
29065 36331 36332 28
29066 36331 36333 28
29067 36331 36334 28
29068 36331 36335 28
29069 36336 36337 28
29070 36336 36338 28
29071 36336 36339 28
29072 36336 36340 28
29073 36341 36342 28
29074 36341 36343 28
29075 36341 36344 28
29076 36341 36345 28
29077 36346 36347 28
29078 36346 36348 28
29079 36346 36349 28
29080 36346 36350 28
29081 36351 36352 28
29082 36351 36353 28
29083 36351 36354 28
29084 36351 36355 28
29085 36356 36357 28
29086 36356 36358 28
29087 36356 36359 28
29088 36356 36360 28
29089 36361 36362 28
29090 36361 36363 28
29091 36361 36364 28
29092 36361 36365 28
29093 36366 36367 28
29094 36366 36368 28
29095 36366 36369 28
29096 36366 36370 28
29097 36371 36372 28
29098 36371 36373 28
29099 36371 36374 28
29100 36371 36375 28
29101 36376 36377 28
29102 36376 36378 28
29103 36376 36379 28
29104 36376 36380 28
29105 36381 36382 28
29106 36381 36383 28
29107 36381 36384 28
29108 36381 36385 28
29109 36386 36387 28
29110 36386 36388 28
29111 36386 36389 28
29112 36386 36390 28
29113 36391 36392 28
29114 36391 36393 28
29115 36391 36394 28
29116 36391 36395 28
29117 36396 36397 28
29118 36396 36398 28
29119 36396 36399 28
29120 36396 36400 28
29121 36401 36402 28
29122 36401 36403 28
29123 36401 36404 28
29124 36401 36405 28
29125 36406 36407 28
29126 36406 36408 28
29127 36406 36409 28
29128 36406 36410 28
29129 36411 36412 28
29130 36411 36413 28
29131 36411 36414 28
29132 36411 36415 28
29133 36416 36417 28
29134 36416 36418 28
29135 36416 36419 28
29136 36416 36420 28
29137 36421 36422 28
29138 36421 36423 28
29139 36421 36424 28
29140 36421 36425 28
29141 36426 36427 28
29142 36426 36428 28
29143 36426 36429 28
29144 36426 36430 28
29145 36431 36432 28
29146 36431 36433 28
29147 36431 36434 28
29148 36431 36435 28
29149 36436 36437 28
29150 36436 36438 28
29151 36436 36439 28
29152 36436 36440 28
29153 36441 36442 28
29154 36441 36443 28
29155 36441 36444 28
29156 36441 36445 28
29157 36446 36447 28
29158 36446 36448 28
29159 36446 36449 28
29160 36446 36450 28
29161 36451 36452 28
29162 36451 36453 28
29163 36451 36454 28
29164 36451 36455 28
29165 36456 36457 28
29166 36456 36458 28
29167 36456 36459 28
29168 36456 36460 28
29169 36461 36462 28
29170 36461 36463 28
29171 36461 36464 28
29172 36461 36465 28
29173 36466 36467 28
29174 36466 36468 28
29175 36466 36469 28
29176 36466 36470 28
29177 36471 36472 28
29178 36471 36473 28
29179 36471 36474 28
29180 36471 36475 28
29181 36476 36477 28
29182 36476 36478 28
29183 36476 36479 28
29184 36476 36480 28
29185 36481 36482 28
29186 36481 36483 28
29187 36481 36484 28
29188 36481 36485 28
29189 36486 36487 28
29190 36486 36488 28
29191 36486 36489 28
29192 36486 36490 28
29193 36491 36492 28
29194 36491 36493 28
29195 36491 36494 28
29196 36491 36495 28
29197 36496 36497 28
29198 36496 36498 28
29199 36496 36499 28
29200 36496 36500 28
29201 36501 36502 28
29202 36501 36503 28
29203 36501 36504 28
29204 36501 36505 28
29205 36506 36507 28
29206 36506 36508 28
29207 36506 36509 28
29208 36506 36510 28
29209 36511 36512 28
29210 36511 36513 28
29211 36511 36514 28
29212 36511 36515 28
29213 36516 36517 28
29214 36516 36518 28
29215 36516 36519 28
29216 36516 36520 28
29217 36521 36522 28
29218 36521 36523 28
29219 36521 36524 28
29220 36521 36525 28
29221 36526 36527 28
29222 36526 36528 28
29223 36526 36529 28
29224 36526 36530 28
29225 36531 36532 28
29226 36531 36533 28
29227 36531 36534 28
29228 36531 36535 28
29229 36536 36537 28
29230 36536 36538 28
29231 36536 36539 28
29232 36536 36540 28
29233 36541 36542 28
29234 36541 36543 28
29235 36541 36544 28
29236 36541 36545 28
29237 36546 36547 28
29238 36546 36548 28
29239 36546 36549 28
29240 36546 36550 28
29241 36551 36552 28
29242 36551 36553 28
29243 36551 36554 28
29244 36551 36555 28
29245 36556 36557 28
29246 36556 36558 28
29247 36556 36559 28
29248 36556 36560 28
29249 36561 36562 28
29250 36561 36563 28
29251 36561 36564 28
29252 36561 36565 28
29253 36566 36567 28
29254 36566 36568 28
29255 36566 36569 28
29256 36566 36570 28
29257 36571 36572 28
29258 36571 36573 28
29259 36571 36574 28
29260 36571 36575 28
29261 36576 36577 28
29262 36576 36578 28
29263 36576 36579 28
29264 36576 36580 28
29265 36581 36582 28
29266 36581 36583 28
29267 36581 36584 28
29268 36581 36585 28
29269 36586 36587 28
29270 36586 36588 28
29271 36586 36589 28
29272 36586 36590 28
29273 36591 36592 28
29274 36591 36593 28
29275 36591 36594 28
29276 36591 36595 28
29277 36596 36597 28
29278 36596 36598 28
29279 36596 36599 28
29280 36596 36600 28
29281 36601 36602 28
29282 36601 36603 28
29283 36601 36604 28
29284 36601 36605 28
29285 36606 36607 28
29286 36606 36608 28
29287 36606 36609 28
29288 36606 36610 28
29289 36611 36612 28
29290 36611 36613 28
29291 36611 36614 28
29292 36611 36615 28
29293 36616 36617 28
29294 36616 36618 28
29295 36616 36619 28
29296 36616 36620 28
29297 36621 36622 28
29298 36621 36623 28
29299 36621 36624 28
29300 36621 36625 28
29301 36626 36627 28
29302 36626 36628 28
29303 36626 36629 28
29304 36626 36630 28
29305 36631 36632 28
29306 36631 36633 28
29307 36631 36634 28
29308 36631 36635 28
29309 36636 36637 28
29310 36636 36638 28
29311 36636 36639 28
29312 36636 36640 28
29313 36641 36642 28
29314 36641 36643 28
29315 36641 36644 28
29316 36641 36645 28
29317 36646 36647 28
29318 36646 36648 28
29319 36646 36649 28
29320 36646 36650 28
29321 36651 36652 28
29322 36651 36653 28
29323 36651 36654 28
29324 36651 36655 28
29325 36656 36657 28
29326 36656 36658 28
29327 36656 36659 28
29328 36656 36660 28
29329 36661 36662 28
29330 36661 36663 28
29331 36661 36664 28
29332 36661 36665 28
29333 36666 36667 28
29334 36666 36668 28
29335 36666 36669 28
29336 36666 36670 28
29337 36671 36672 28
29338 36671 36673 28
29339 36671 36674 28
29340 36671 36675 28
29341 36676 36677 28
29342 36676 36678 28
29343 36676 36679 28
29344 36676 36680 28
29345 36681 36682 28
29346 36681 36683 28
29347 36681 36684 28
29348 36681 36685 28
29349 36686 36687 28
29350 36686 36688 28
29351 36686 36689 28
29352 36686 36690 28
29353 36691 36692 28
29354 36691 36693 28
29355 36691 36694 28
29356 36691 36695 28
29357 36696 36697 28
29358 36696 36698 28
29359 36696 36699 28
29360 36696 36700 28
29361 36701 36702 28
29362 36701 36703 28
29363 36701 36704 28
29364 36701 36705 28
29365 36706 36707 28
29366 36706 36708 28
29367 36706 36709 28
29368 36706 36710 28
29369 36711 36712 28
29370 36711 36713 28
29371 36711 36714 28
29372 36711 36715 28
29373 36716 36717 28
29374 36716 36718 28
29375 36716 36719 28
29376 36716 36720 28
29377 36721 36722 28
29378 36721 36723 28
29379 36721 36724 28
29380 36721 36725 28
29381 36726 36727 28
29382 36726 36728 28
29383 36726 36729 28
29384 36726 36730 28
29385 36731 36732 28
29386 36731 36733 28
29387 36731 36734 28
29388 36731 36735 28
29389 36736 36737 28
29390 36736 36738 28
29391 36736 36739 28
29392 36736 36740 28
29393 36741 36742 28
29394 36741 36743 28
29395 36741 36744 28
29396 36741 36745 28
29397 36746 36747 28
29398 36746 36748 28
29399 36746 36749 28
29400 36746 36750 28
29401 36751 36752 28
29402 36751 36753 28
29403 36751 36754 28
29404 36751 36755 28
29405 36756 36757 28
29406 36756 36758 28
29407 36756 36759 28
29408 36756 36760 28
29409 36761 36762 28
29410 36761 36763 28
29411 36761 36764 28
29412 36761 36765 28
29413 36766 36767 28
29414 36766 36768 28
29415 36766 36769 28
29416 36766 36770 28
29417 36771 36772 28
29418 36771 36773 28
29419 36771 36774 28
29420 36771 36775 28
29421 36776 36777 28
29422 36776 36778 28
29423 36776 36779 28
29424 36776 36780 28
29425 36781 36782 28
29426 36781 36783 28
29427 36781 36784 28
29428 36781 36785 28
29429 36786 36787 28
29430 36786 36788 28
29431 36786 36789 28
29432 36786 36790 28
29433 36791 36792 28
29434 36791 36793 28
29435 36791 36794 28
29436 36791 36795 28
29437 36796 36797 28
29438 36796 36798 28
29439 36796 36799 28
29440 36796 36800 28
29441 36801 36802 28
29442 36801 36803 28
29443 36801 36804 28
29444 36801 36805 28
29445 36806 36807 28
29446 36806 36808 28
29447 36806 36809 28
29448 36806 36810 28
29449 36811 36812 28
29450 36811 36813 28
29451 36811 36814 28
29452 36811 36815 28
29453 36816 36817 28
29454 36816 36818 28
29455 36816 36819 28
29456 36816 36820 28
29457 36821 36822 28
29458 36821 36823 28
29459 36821 36824 28
29460 36821 36825 28
29461 36826 36827 28
29462 36826 36828 28
29463 36826 36829 28
29464 36826 36830 28
29465 36831 36832 28
29466 36831 36833 28
29467 36831 36834 28
29468 36831 36835 28
29469 36836 36837 28
29470 36836 36838 28
29471 36836 36839 28
29472 36836 36840 28
29473 36841 36842 28
29474 36841 36843 28
29475 36841 36844 28
29476 36841 36845 28
29477 36846 36847 28
29478 36846 36848 28
29479 36846 36849 28
29480 36846 36850 28
29481 36851 36852 28
29482 36851 36853 28
29483 36851 36854 28
29484 36851 36855 28
29485 36856 36857 28
29486 36856 36858 28
29487 36856 36859 28
29488 36856 36860 28
29489 36861 36862 28
29490 36861 36863 28
29491 36861 36864 28
29492 36861 36865 28
29493 36866 36867 28
29494 36866 36868 28
29495 36866 36869 28
29496 36866 36870 28
29497 36871 36872 28
29498 36871 36873 28
29499 36871 36874 28
29500 36871 36875 28
29501 36876 36877 28
29502 36876 36878 28
29503 36876 36879 28
29504 36876 36880 28
29505 36881 36882 28
29506 36881 36883 28
29507 36881 36884 28
29508 36881 36885 28
29509 36886 36887 28
29510 36886 36888 28
29511 36886 36889 28
29512 36886 36890 28
29513 36891 36892 28
29514 36891 36893 28
29515 36891 36894 28
29516 36891 36895 28
29517 36896 36897 28
29518 36896 36898 28
29519 36896 36899 28
29520 36896 36900 28
29521 36901 36902 28
29522 36901 36903 28
29523 36901 36904 28
29524 36901 36905 28
29525 36906 36907 28
29526 36906 36908 28
29527 36906 36909 28
29528 36906 36910 28
29529 36911 36912 28
29530 36911 36913 28
29531 36911 36914 28
29532 36911 36915 28
29533 36916 36917 28
29534 36916 36918 28
29535 36916 36919 28
29536 36916 36920 28
29537 36921 36922 28
29538 36921 36923 28
29539 36921 36924 28
29540 36921 36925 28
29541 36926 36927 28
29542 36926 36928 28
29543 36926 36929 28
29544 36926 36930 28
29545 36931 36932 28
29546 36931 36933 28
29547 36931 36934 28
29548 36931 36935 28
29549 36936 36937 28
29550 36936 36938 28
29551 36936 36939 28
29552 36936 36940 28
29553 36941 36942 28
29554 36941 36943 28
29555 36941 36944 28
29556 36941 36945 28
29557 36946 36947 28
29558 36946 36948 28
29559 36946 36949 28
29560 36946 36950 28
29561 36951 36952 28
29562 36951 36953 28
29563 36951 36954 28
29564 36951 36955 28
29565 36956 36957 28
29566 36956 36958 28
29567 36956 36959 28
29568 36956 36960 28
29569 36961 36962 28
29570 36961 36963 28
29571 36961 36964 28
29572 36961 36965 28
29573 36966 36967 28
29574 36966 36968 28
29575 36966 36969 28
29576 36966 36970 28
29577 36971 36972 28
29578 36971 36973 28
29579 36971 36974 28
29580 36971 36975 28
29581 36976 36977 28
29582 36976 36978 28
29583 36976 36979 28
29584 36976 36980 28
29585 36981 36982 28
29586 36981 36983 28
29587 36981 36984 28
29588 36981 36985 28
29589 36986 36987 28
29590 36986 36988 28
29591 36986 36989 28
29592 36986 36990 28
29593 36991 36992 28
29594 36991 36993 28
29595 36991 36994 28
29596 36991 36995 28
29597 36996 36997 28
29598 36996 36998 28
29599 36996 36999 28
29600 36996 37000 28
29601 37001 37002 28
29602 37001 37003 28
29603 37001 37004 28
29604 37001 37005 28
29605 37006 37007 28
29606 37006 37008 28
29607 37006 37009 28
29608 37006 37010 28
29609 37011 37012 28
29610 37011 37013 28
29611 37011 37014 28
29612 37011 37015 28
29613 37016 37017 28
29614 37016 37018 28
29615 37016 37019 28
29616 37016 37020 28
29617 37021 37022 28
29618 37021 37023 28
29619 37021 37024 28
29620 37021 37025 28
29621 37026 37027 28
29622 37026 37028 28
29623 37026 37029 28
29624 37026 37030 28
29625 37031 37032 28
29626 37031 37033 28
29627 37031 37034 28
29628 37031 37035 28
29629 37036 37037 28
29630 37036 37038 28
29631 37036 37039 28
29632 37036 37040 28
29633 37041 37042 28
29634 37041 37043 28
29635 37041 37044 28
29636 37041 37045 28
29637 37046 37047 28
29638 37046 37048 28
29639 37046 37049 28
29640 37046 37050 28
29641 37051 37052 28
29642 37051 37053 28
29643 37051 37054 28
29644 37051 37055 28
29645 37056 37057 28
29646 37056 37058 28
29647 37056 37059 28
29648 37056 37060 28
29649 37061 37062 28
29650 37061 37063 28
29651 37061 37064 28
29652 37061 37065 28
29653 37066 37067 28
29654 37066 37068 28
29655 37066 37069 28
29656 37066 37070 28
29657 37071 37072 28
29658 37071 37073 28
29659 37071 37074 28
29660 37071 37075 28
29661 37076 37077 28
29662 37076 37078 28
29663 37076 37079 28
29664 37076 37080 28
29665 37081 37082 28
29666 37081 37083 28
29667 37081 37084 28
29668 37081 37085 28
29669 37086 37087 28
29670 37086 37088 28
29671 37086 37089 28
29672 37086 37090 28
29673 37091 37092 28
29674 37091 37093 28
29675 37091 37094 28
29676 37091 37095 28
29677 37096 37097 28
29678 37096 37098 28
29679 37096 37099 28
29680 37096 37100 28
29681 37101 37102 28
29682 37101 37103 28
29683 37101 37104 28
29684 37101 37105 28
29685 37106 37107 28
29686 37106 37108 28
29687 37106 37109 28
29688 37106 37110 28
29689 37111 37112 28
29690 37111 37113 28
29691 37111 37114 28
29692 37111 37115 28
29693 37116 37117 28
29694 37116 37118 28
29695 37116 37119 28
29696 37116 37120 28
29697 37121 37122 28
29698 37121 37123 28
29699 37121 37124 28
29700 37121 37125 28
29701 37126 37127 28
29702 37126 37128 28
29703 37126 37129 28
29704 37126 37130 28
29705 37131 37132 28
29706 37131 37133 28
29707 37131 37134 28
29708 37131 37135 28
29709 37136 37137 28
29710 37136 37138 28
29711 37136 37139 28
29712 37136 37140 28
29713 37141 37142 28
29714 37141 37143 28
29715 37141 37144 28
29716 37141 37145 28
29717 37146 37147 28
29718 37146 37148 28
29719 37146 37149 28
29720 37146 37150 28
29721 37151 37152 28
29722 37151 37153 28
29723 37151 37154 28
29724 37151 37155 28
29725 37156 37157 28
29726 37156 37158 28
29727 37156 37159 28
29728 37156 37160 28
29729 37161 37162 28
29730 37161 37163 28
29731 37161 37164 28
29732 37161 37165 28
29733 37166 37167 28
29734 37166 37168 28
29735 37166 37169 28
29736 37166 37170 28
29737 37171 37172 28
29738 37171 37173 28
29739 37171 37174 28
29740 37171 37175 28
29741 37176 37177 28
29742 37176 37178 28
29743 37176 37179 28
29744 37176 37180 28
29745 37181 37182 28
29746 37181 37183 28
29747 37181 37184 28
29748 37181 37185 28
29749 37186 37187 28
29750 37186 37188 28
29751 37186 37189 28
29752 37186 37190 28
29753 37191 37192 28
29754 37191 37193 28
29755 37191 37194 28
29756 37191 37195 28
29757 37196 37197 28
29758 37196 37198 28
29759 37196 37199 28
29760 37196 37200 28
29761 37201 37202 28
29762 37201 37203 28
29763 37201 37204 28
29764 37201 37205 28
29765 37206 37207 28
29766 37206 37208 28
29767 37206 37209 28
29768 37206 37210 28
29769 37211 37212 28
29770 37211 37213 28
29771 37211 37214 28
29772 37211 37215 28
29773 37216 37217 28
29774 37216 37218 28
29775 37216 37219 28
29776 37216 37220 28
29777 37221 37222 28
29778 37221 37223 28
29779 37221 37224 28
29780 37221 37225 28
29781 37226 37227 28
29782 37226 37228 28
29783 37226 37229 28
29784 37226 37230 28
29785 37231 37232 28
29786 37231 37233 28
29787 37231 37234 28
29788 37231 37235 28
29789 37236 37237 28
29790 37236 37238 28
29791 37236 37239 28
29792 37236 37240 28
29793 37241 37242 28
29794 37241 37243 28
29795 37241 37244 28
29796 37241 37245 28
29797 37246 37247 28
29798 37246 37248 28
29799 37246 37249 28
29800 37246 37250 28
29801 37251 37252 28
29802 37251 37253 28
29803 37251 37254 28
29804 37251 37255 28
29805 37256 37257 28
29806 37256 37258 28
29807 37256 37259 28
29808 37256 37260 28
29809 37261 37262 28
29810 37261 37263 28
29811 37261 37264 28
29812 37261 37265 28
29813 37266 37267 28
29814 37266 37268 28
29815 37266 37269 28
29816 37266 37270 28
29817 37271 37272 28
29818 37271 37273 28
29819 37271 37274 28
29820 37271 37275 28
29821 37276 37277 28
29822 37276 37278 28
29823 37276 37279 28
29824 37276 37280 28
29825 37281 37282 28
29826 37281 37283 28
29827 37281 37284 28
29828 37281 37285 28
29829 37286 37287 28
29830 37286 37288 28
29831 37286 37289 28
29832 37286 37290 28
29833 37291 37292 28
29834 37291 37293 28
29835 37291 37294 28
29836 37291 37295 28
29837 37296 37297 28
29838 37296 37298 28
29839 37296 37299 28
29840 37296 37300 28
29841 37301 37302 28
29842 37301 37303 28
29843 37301 37304 28
29844 37301 37305 28
29845 37306 37307 28
29846 37306 37308 28
29847 37306 37309 28
29848 37306 37310 28
29849 37311 37312 28
29850 37311 37313 28
29851 37311 37314 28
29852 37311 37315 28
29853 37316 37317 28
29854 37316 37318 28
29855 37316 37319 28
29856 37316 37320 28
29857 37321 37322 28
29858 37321 37323 28
29859 37321 37324 28
29860 37321 37325 28
29861 37326 37327 28
29862 37326 37328 28
29863 37326 37329 28
29864 37326 37330 28
29865 37331 37332 28
29866 37331 37333 28
29867 37331 37334 28
29868 37331 37335 28
29869 37336 37337 28
29870 37336 37338 28
29871 37336 37339 28
29872 37336 37340 28
29873 37341 37342 28
29874 37341 37343 28
29875 37341 37344 28
29876 37341 37345 28
29877 37346 37347 28
29878 37346 37348 28
29879 37346 37349 28
29880 37346 37350 28
29881 37351 37352 28
29882 37351 37353 28
29883 37351 37354 28
29884 37351 37355 28
29885 37356 37357 28
29886 37356 37358 28
29887 37356 37359 28
29888 37356 37360 28
29889 37361 37362 28
29890 37361 37363 28
29891 37361 37364 28
29892 37361 37365 28
29893 37366 37367 28
29894 37366 37368 28
29895 37366 37369 28
29896 37366 37370 28
29897 37371 37372 28
29898 37371 37373 28
29899 37371 37374 28
29900 37371 37375 28
29901 37376 37377 28
29902 37376 37378 28
29903 37376 37379 28
29904 37376 37380 28
29905 37381 37382 28
29906 37381 37383 28
29907 37381 37384 28
29908 37381 37385 28
29909 37386 37387 28
29910 37386 37388 28
29911 37386 37389 28
29912 37386 37390 28
29913 37391 37392 28
29914 37391 37393 28
29915 37391 37394 28
29916 37391 37395 28
29917 37396 37397 28
29918 37396 37398 28
29919 37396 37399 28
29920 37396 37400 28
29921 37401 37402 28
29922 37401 37403 28
29923 37401 37404 28
29924 37401 37405 28
29925 37406 37407 28
29926 37406 37408 28
29927 37406 37409 28
29928 37406 37410 28
29929 37411 37412 28
29930 37411 37413 28
29931 37411 37414 28
29932 37411 37415 28
29933 37416 37417 28
29934 37416 37418 28
29935 37416 37419 28
29936 37416 37420 28
29937 37421 37422 28
29938 37421 37423 28
29939 37421 37424 28
29940 37421 37425 28
29941 37426 37427 28
29942 37426 37428 28
29943 37426 37429 28
29944 37426 37430 28
29945 37431 37432 28
29946 37431 37433 28
29947 37431 37434 28
29948 37431 37435 28
29949 37436 37437 28
29950 37436 37438 28
29951 37436 37439 28
29952 37436 37440 28
29953 37441 37442 28
29954 37441 37443 28
29955 37441 37444 28
29956 37441 37445 28
29957 37446 37447 28
29958 37446 37448 28
29959 37446 37449 28
29960 37446 37450 28
29961 37451 37452 28
29962 37451 37453 28
29963 37451 37454 28
29964 37451 37455 28
29965 37456 37457 28
29966 37456 37458 28
29967 37456 37459 28
29968 37456 37460 28
29969 37461 37462 28
29970 37461 37463 28
29971 37461 37464 28
29972 37461 37465 28
29973 37466 37467 28
29974 37466 37468 28
29975 37466 37469 28
29976 37466 37470 28
29977 37471 37472 28
29978 37471 37473 28
29979 37471 37474 28
29980 37471 37475 28
29981 37476 37477 28
29982 37476 37478 28
29983 37476 37479 28
29984 37476 37480 28
29985 37481 37482 28
29986 37481 37483 28
29987 37481 37484 28
29988 37481 37485 28
29989 37486 37487 28
29990 37486 37488 28
29991 37486 37489 28
29992 37486 37490 28
29993 37491 37492 28
29994 37491 37493 28
29995 37491 37494 28
29996 37491 37495 28
29997 37496 37497 28
29998 37496 37498 28
29999 37496 37499 28
30000 37496 37500 28
@<TRIPOS>CRYSIN
249.0454247778313 249.0454247778313 249.0454247778313 90 90 90 1 1
