@<TRIPOS>MOLECULE
mol
37500 30000
SMALL
USER_CHARGES


@<TRIPOS>ATOM
1 C 32.58410782184586 37.41437803345434 37.4552782617442 C 0.0 **** -0.24
2 H 32.84849689702622 36.36271727939311 37.56352429442862 H 0.0 **** 0.06
3 H 33.285825672003625 37.89747200112629 36.775712661331056 H 0.0 **** 0.06
4 H 32.62697597566458 37.90134698646756 38.429323789800264 H 0.0 **** 0.06
5 H 31.57428845167226 37.494841315775034 37.05255299375705 H 0.0 **** 0.06
6 C 88.33522115071368 107.10560839030167 135.87591179370764 C 0.0 **** -0.24
7 H 87.87474578029615 106.18326618943773 135.52262235809633 H 0.0 **** 0.06
8 H 89.02660684933822 106.87973179133958 136.68847547406557 H 0.0 **** 0.06
9 H 87.56066387123936 107.78316369242803 136.23631432383667 H 0.0 **** 0.06
10 H 88.87843776282291 107.57713155706922 135.05651032638997 H 0.0 **** 0.06
11 C 181.23167151416186 4.608628192287377 135.41650751739945 C 0.0 **** -0.24
12 H 182.2985213337318 4.504059105490732 135.61305750850772 H 0.0 **** 0.06
13 H 180.70171220705072 3.7457071460839444 135.82166867500496 H 0.0 **** 0.06
14 H 181.06427420838298 4.664545100092646 134.34089951364604 H 0.0 **** 0.06
15 H 180.8623009663774 5.51797126913916 135.89029723744255 H 0.0 **** 0.06
16 C 181.7539229629445 191.23170416749372 24.205060939294512 C 0.0 **** -0.24
17 H 181.74512423542836 190.37361548131065 23.533108171232072 H 0.0 **** 0.06
18 H 180.74906015076698 191.4003871064623 24.59243535012996 H 0.0 **** 0.06
19 H 182.08797463221165 192.11547581055072 23.660665570820882 H 0.0 **** 0.06
20 H 182.4350394773467 191.0365440833782 25.033719482882617 H 0.0 **** 0.06
21 C 95.43392661605971 135.47613597182277 197.28639291726176 C 0.0 **** -0.24
22 H 95.89309662633538 136.4615584802408 197.20981281274248 H 0.0 **** 0.06
23 H 95.73219846929992 134.86838613393883 196.43149515087404 H 0.0 **** 0.06
24 H 94.34955739785532 135.58064797085677 197.29756238542137 H 0.0 **** 0.06
25 H 95.76218518829621 134.99350693011667 198.20687575377946 H 0.0 **** 0.06
26 C 153.80042989419195 119.596096435045 47.47767327160591 C 0.0 **** -0.24
27 H 153.8582692819303 120.06015254605411 48.46315827796053 H 0.0 **** 0.06
28 H 152.98098267265146 118.87716199548119 47.462987652533286 H 0.0 **** 0.06
29 H 154.7376230999247 119.08458207008881 47.26206469459268 H 0.0 **** 0.06
30 H 153.62403302714876 120.36481234558944 46.7259385347416 H 0.0 **** 0.06
31 C 29.449799759572016 189.10995682094898 32.70185189838952 C 0.0 **** -0.24
32 H 29.05747831243275 188.10686321528698 32.87122795601499 H 0.0 **** 0.06
33 H 28.931538558726686 189.5649027977529 31.857952842613173 H 0.0 **** 0.06
34 H 30.51628333481608 189.0513323577639 32.48599990956589 H 0.0 **** 0.06
35 H 29.292306633448675 189.71595938308946 33.59465028773354 H 0.0 **** 0.06
36 C 92.66464541022161 87.23327259469058 161.1509835394474 C 0.0 **** -0.24
37 H 91.6615445229046 87.65059814300368 161.24013586380897 H 0.0 **** 0.06
38 H 93.18260519917077 87.32560066865632 162.10557838528464 H 0.0 **** 0.06
39 H 93.21681061363556 87.77613077712856 160.38326501465033 H 0.0 **** 0.06
40 H 92.59651938710907 86.18104153842454 160.873648368987 H 0.0 **** 0.06
41 C 193.00432761891406 65.77907492479862 19.077000672793076 C 0.0 **** -0.24
42 H 192.8025227313638 66.77426912981257 18.68312710510571 H 0.0 **** 0.06
43 H 194.0312459006331 65.73158554315172 19.439757813536005 H 0.0 **** 0.06
44 H 192.8623747763333 65.04014360560937 18.287882781857462 H 0.0 **** 0.06
45 H 192.31902659904216 65.5684798747404 19.89828404675856 H 0.0 **** 0.06
46 C 200.01555707997608 6.39322551182093 160.28608721796263 C 0.0 **** -0.24
47 H 200.58777446700094 5.488950862947341 160.49453569221578 H 0.0 **** 0.06
48 H 199.82496638282942 6.924702852842842 161.21850995499875 H 0.0 **** 0.06
49 H 199.0678382641657 6.123084994187849 159.82075048345837 H 0.0 **** 0.06
50 H 200.58216428690375 7.033846888981529 159.61116007998152 H 0.0 **** 0.06
51 C 193.40683008984132 118.66828763466327 24.13421458751759 C 0.0 **** -0.24
52 H 193.24347706228795 119.72154294348024 23.90596433023194 H 0.0 **** 0.06
53 H 194.43388227193896 118.39928602656073 23.888796423319263 H 0.0 **** 0.06
54 H 192.71986431274922 118.05919556736711 23.545243416636083 H 0.0 **** 0.06
55 H 193.22760153521818 118.49461755995566 25.195257455130502 H 0.0 **** 0.06
56 C 187.1884937786439 159.5757627376677 213.05478817027566 C 0.0 **** -0.24
57 H 186.2654931071672 159.6856049780576 212.48442810878726 H 0.0 **** 0.06
58 H 186.96914970308325 159.10170115212867 214.01144428674905 H 0.0 **** 0.06
59 H 187.62705033901682 160.5583519212653 213.22668570878005 H 0.0 **** 0.06
60 H 187.8891237228461 158.957413261037 212.49376166396996 H 0.0 **** 0.06
61 C 176.30998446136232 136.0203246643589 207.3950723088802 C 0.0 **** -0.24
62 H 175.52469299589995 136.051983165659 208.15042401012843 H 0.0 **** 0.06
63 H 176.43013571308046 137.00936679095423 206.95473895946213 H 0.0 **** 0.06
64 H 176.03705969496474 135.30635568262517 206.6183268597798 H 0.0 **** 0.06
65 H 177.24691125629812 135.71200893453857 207.8596621699875 H 0.0 **** 0.06
66 C 130.2575403028822 199.12066210090705 97.85523576757247 C 0.0 **** -0.24
67 H 130.68668045579568 198.70301746853508 98.7663421483259 H 0.0 **** 0.06
68 H 129.47724864730645 199.8364287986123 98.11704701791759 H 0.0 **** 0.06
69 H 129.82906030034155 198.3182158295568 97.2545977661875 H 0.0 **** 0.06
70 H 131.03743613630115 199.62560829494623 97.28570266240554 H 0.0 **** 0.06
71 C 99.79857141211896 35.580550515485584 39.365569098025745 C 0.0 **** -0.24
72 H 99.3085787699611 36.54615927944525 39.49075720975438 H 0.0 **** 0.06
73 H 99.12120178581425 34.893266801217194 38.85878253472377 H 0.0 **** 0.06
74 H 100.0623625071503 35.17718062934193 40.34306187263681 H 0.0 **** 0.06
75 H 100.70169500510623 35.70636697432562 38.76857736688939 H 0.0 **** 0.06
76 C 169.15147250959492 63.0228974780548 15.400869104913 C 0.0 **** -0.24
77 H 168.3450834055944 63.75521844212483 15.347635872484886 H 0.0 **** 0.06
78 H 169.46033867335186 62.89686096662024 16.438420849240458 H 0.0 **** 0.06
79 H 169.99816085713587 63.371814091859164 14.808821646456067 H 0.0 **** 0.06
80 H 168.8012313912431 62.06879017529036 15.00697121051519 H 0.0 **** 0.06
81 C 145.45455734046146 14.732567952610452 24.52108505184799 C 0.0 **** -0.24
82 H 144.60242466229016 15.054019546922063 23.920711885734875 H 0.0 **** 0.06
83 H 146.37853463922465 14.946772261196486 23.984548387845734 H 0.0 **** 0.06
84 H 145.38128829985476 13.661420551575986 24.708864251000875 H 0.0 **** 0.06
85 H 145.4517826775912 15.268665860639032 25.470199098214323 H 0.0 **** 0.06
86 C 158.32108410405306 117.78551999119573 3.469531786799422 C 0.0 **** -0.24
87 H 157.65247277261687 117.67731659364794 4.323134174772861 H 0.0 **** 0.06
88 H 159.04510264411647 118.57482375217559 3.673585396735376 H 0.0 **** 0.06
89 H 157.73951601435164 118.0443988365014 2.584398210833882 H 0.0 **** 0.06
90 H 158.84552528575352 116.84572972269645 3.296925779592243 H 0.0 **** 0.06
91 C 60.89853360807932 135.50292752045334 70.39744572947973 C 0.0 **** -0.24
92 H 61.048503379607496 135.9099085975816 71.39752353153261 H 0.0 **** 0.06
93 H 60.34322715823559 136.22121736733777 69.7927568750523 H 0.0 **** 0.06
94 H 60.33548701258063 134.57242167995156 70.4646360297944 H 0.0 **** 0.06
95 H 61.86564660570389 135.31020423567162 69.93440005036172 H 0.0 **** 0.06
96 C 96.38645559499737 95.24421812383686 205.3317735688385 C 0.0 **** -0.24
97 H 96.82975778859658 94.25721345670165 205.19403789674772 H 0.0 **** 0.06
98 H 95.82570729912256 95.2625721794568 206.26635508798847 H 0.0 **** 0.06
99 H 95.71575631726593 95.46024608293679 204.50002568641395 H 0.0 **** 0.06
100 H 97.17622755462558 95.99403488122583 205.36598178990934 H 0.0 **** 0.06
101 C 185.99770741786782 68.43311972165039 99.973109844578 C 0.0 **** -0.24
102 H 185.6059934000229 67.50089473607903 99.56757461615223 H 0.0 **** 0.06
103 H 186.1603391564947 68.32342248159475 101.0450662619777 H 0.0 **** 0.06
104 H 185.28171900417806 69.23576511302382 99.79351830446211 H 0.0 **** 0.06
105 H 186.94185735759464 68.67250788750911 99.48424552041496 H 0.0 **** 0.06
106 C 130.79103415684756 61.12039470525269 216.58110662598304 C 0.0 **** -0.24
107 H 129.8687214486581 60.66212951302009 216.93979512493928 H 0.0 **** 0.06
108 H 131.64386487264142 60.653202838072275 217.07357049898562 H 0.0 **** 0.06
109 H 130.77836610017948 62.185679548387554 216.80707526378657 H 0.0 **** 0.06
110 H 130.87102523843214 60.97887575000422 215.50276949499658 H 0.0 **** 0.06
111 C 61.047785200825444 76.08672930474586 33.39671050897907 C 0.0 **** -0.24
112 H 60.34164423560247 76.19148574632425 34.22058742125577 H 0.0 **** 0.06
113 H 61.67298451736434 75.20983135107969 33.56507894811401 H 0.0 **** 0.06
114 H 61.6756408626552 76.97583694522831 33.340934138345304 H 0.0 **** 0.06
115 H 60.50002142064915 75.96815486004658 32.46154202787555 H 0.0 **** 0.06
116 C 181.11676356622337 185.8390848127908 89.45216028503506 C 0.0 **** -0.24
117 H 180.27906188646676 186.22223177614416 90.03474112424675 H 0.0 **** 0.06
118 H 182.03287036462393 185.91536528207246 90.03958925536062 H 0.0 **** 0.06
119 H 181.22144518379423 186.42462884180628 88.53888591109887 H 0.0 **** 0.06
120 H 180.9353229755858 184.79561535105788 89.19644185615937 H 0.0 **** 0.06
121 C 64.53844661446942 204.50023553938024 184.65364416282867 C 0.0 **** -0.24
122 H 64.82916562903068 203.97401433754328 183.74434397008474 H 0.0 **** 0.06
123 H 64.15139629438983 203.7843462554957 185.37940771624312 H 0.0 **** 0.06
124 H 63.76562948188666 205.2325075398976 184.41814990076296 H 0.0 **** 0.06
125 H 65.40620808627637 205.00981224484138 185.07258657827782 H 0.0 **** 0.06
126 C 15.50883341562755 89.73689540892998 134.16806469178601 C 0.0 **** -0.24
127 H 15.866078679404154 90.11376746756473 135.12667379763752 H 0.0 **** 0.06
128 H 16.22740654125525 89.99007358246153 133.38806236813213 H 0.0 **** 0.06
129 H 14.545158272457769 90.18945960542005 133.93545773903327 H 0.0 **** 0.06
130 H 15.398574803716144 88.65327539047217 134.22272594279326 H 0.0 **** 0.06
131 C 104.1023480206086 213.0800616055337 5.61569605561337 C 0.0 **** -0.24
132 H 103.89282809550882 213.34430827352034 4.579066787321693 H 0.0 **** 0.06
133 H 103.22193392992862 213.28102547362369 6.226388855140613 H 0.0 **** 0.06
134 H 104.94086107281969 213.67407884311652 5.979582746757046 H 0.0 **** 0.06
135 H 104.35357006633227 212.02106503811157 5.676793471792564 H 0.0 **** 0.06
136 C 170.61837108776777 21.187307848435808 193.26064197710426 C 0.0 **** -0.24
137 H 171.1383087381048 20.860748970545615 192.36100080104848 H 0.0 **** 0.06
138 H 171.34052030325404 21.334599698517877 194.06478237996726 H 0.0 **** 0.06
139 H 169.89335515343527 20.429847840071716 193.55720791331075 H 0.0 **** 0.06
140 H 170.1018539770398 22.125868320075597 193.06073088587922 H 0.0 **** 0.06
141 C 118.65564517272509 183.44258667636737 82.73362992392305 C 0.0 **** -0.24
142 H 118.60502961622831 184.06842582906057 81.84266608839363 H 0.0 **** 0.06
143 H 118.65333007583916 184.0747827978991 83.62205091399267 H 0.0 **** 0.06
144 H 119.56942070640275 182.85035867848413 82.71042695047902 H 0.0 **** 0.06
145 H 117.79204493055914 182.77717437386974 82.75887363505655 H 0.0 **** 0.06
146 C 63.31104983896576 105.40584329272447 125.59752596585561 C 0.0 **** -0.24
147 H 62.22282459437045 105.41360598460618 125.53973594627412 H 0.0 **** 0.06
148 H 63.689709993619815 106.41635680840706 125.4385791600361 H 0.0 **** 0.06
149 H 63.71115937122741 104.74315511365468 124.83068382929353 H 0.0 **** 0.06
150 H 63.619427027430106 105.05245328481523 126.58102794057557 H 0.0 **** 0.06
151 C 168.7765043824333 177.80076401885853 11.236662658156476 C 0.0 **** -0.24
152 H 168.0275636693375 177.46855723234927 10.518497929269103 H 0.0 **** 0.06
153 H 169.71939981200603 177.9839982780682 10.719691109583223 H 0.0 **** 0.06
154 H 168.92120681892249 177.02988717527853 11.993640356181174 H 0.0 **** 0.06
155 H 168.43946429323478 178.72071689664392 11.71420932098161 H 0.0 **** 0.06
156 C 163.00339760027873 140.8542357052246 3.9430461812671354 C 0.0 **** -0.24
157 H 163.17664253726002 140.56024874606447 2.9083191741004555 H 0.0 **** 0.06
158 H 162.55416484012466 141.84748660121198 3.9678803564885925 H 0.0 **** 0.06
159 H 163.95152151543982 140.86969478564697 4.4803237544369665 H 0.0 **** 0.06
160 H 162.33005771748486 140.13893248506395 4.415198529493381 H 0.0 **** 0.06
161 C 128.63251800894272 149.17555469207122 23.626858766888162 C 0.0 **** -0.24
162 H 129.59917275623854 149.30427964936024 24.11216031701656 H 0.0 **** 0.06
163 H 128.27226326371704 148.16050685381015 23.796730941817643 H 0.0 **** 0.06
164 H 128.73860188977022 149.3498957998957 22.55580669679371 H 0.0 **** 0.06
165 H 127.91925479028184 149.88815721685233 24.041320300707838 H 0.0 **** 0.06
166 C 147.4146708019864 140.00439935207692 34.78353832730636 C 0.0 **** -0.24
167 H 147.08994192551648 140.8987203806098 35.316483175750975 H 0.0 **** 0.06
168 H 148.20395572804142 140.26967950488836 34.07939849704346 H 0.0 **** 0.06
169 H 146.5715483197406 139.5784651681019 34.24138460798579 H 0.0 **** 0.06
170 H 147.79430932792877 139.2742611960797 35.49751800534558 H 0.0 **** 0.06
171 C 213.75145711126888 118.88257938501737 73.46969666092339 C 0.0 **** -0.24
172 H 214.36363640340377 119.75622570038793 73.69328728032416 H 0.0 **** 0.06
173 H 212.7398022418858 119.20175739219043 73.2188621259199 H 0.0 **** 0.06
174 H 213.720503777128 118.22774745995149 74.3403895882668 H 0.0 **** 0.06
175 H 214.1817011212445 118.34426085494398 72.62488402060613 H 0.0 **** 0.06
176 C 75.93462326921588 33.45972988481175 38.84260412618187 C 0.0 **** -0.24
177 H 76.56306157828368 34.11321978567068 39.4486382815482 H 0.0 **** 0.06
178 H 76.53131811972565 32.62817275429052 38.46730939482035 H 0.0 **** 0.06
179 H 75.52997377494415 34.02370515179675 38.002234671447894 H 0.0 **** 0.06
180 H 75.11682273002191 33.075930062819396 39.45106947552773 H 0.0 **** 0.06
181 C 14.054000502341225 195.3190848333332 98.01211555512843 C 0.0 **** -0.24
182 H 13.226187283904068 195.21075822974984 97.3102738463161 H 0.0 **** 0.06
183 H 14.776334747186567 194.519114250318 97.84813552499692 H 0.0 **** 0.06
184 H 13.674462328523973 195.26297379479564 99.03213293472335 H 0.0 **** 0.06
185 H 14.537332489232867 196.2831467921934 97.85649148231538 H 0.0 **** 0.06
186 C 122.43691973823248 204.34799483485142 40.1245428296217 C 0.0 **** -0.24
187 H 121.46437707738467 204.1211412581319 39.68628789731669 H 0.0 **** 0.06
188 H 122.78847417819556 205.3094441801889 39.74850321678181 H 0.0 **** 0.06
189 H 123.14860606848167 203.56950174718594 39.85219527031738 H 0.0 **** 0.06
190 H 122.34494695088092 204.393073816038 41.20945896410852 H 0.0 **** 0.06
191 C 193.28533996993684 30.83410882633848 161.11516358778806 C 0.0 **** -0.24
192 H 194.03706309523375 30.456451103426616 161.80791831764444 H 0.0 **** 0.06
193 H 193.2300608052886 31.92033674337148 161.19745143779213 H 0.0 **** 0.06
194 H 192.3155324773611 30.40022513233791 161.3584278507935 H 0.0 **** 0.06
195 H 193.56062650519536 30.560694082881156 160.0960292215867 H 0.0 **** 0.06
196 C 4.420056366750032 64.35288734621476 126.9973551912846 C 0.0 **** -0.24
197 H 4.586426575746955 63.277229116645486 127.06058867777521 H 0.0 **** 0.06
198 H 5.275098368300348 64.82435949674151 126.51149991842944 H 0.0 **** 0.06
199 H 4.302249694105036 64.76111291200789 128.00212364500652 H 0.0 **** 0.06
200 H 3.5180610074535537 64.54756151221767 126.41833148292532 H 0.0 **** 0.06
201 C 43.80678944104061 180.9001714653964 22.265719087428394 C 0.0 **** -0.24
202 H 43.80763523065575 181.7242574880303 21.552398229796154 H 0.0 **** 0.06
203 H 44.6861947018096 180.2773939827365 22.10156753577874 H 0.0 **** 0.06
204 H 42.9063597971122 180.30154936234896 22.128099430264584 H 0.0 **** 0.06
205 H 43.82686894847555 181.29885105093717 23.2804587358564 H 0.0 **** 0.06
206 C 64.04757875490662 94.64225507153394 166.3888880323022 C 0.0 **** -0.24
207 H 65.06575218056818 94.89007961561946 166.08755927382225 H 0.0 **** 0.06
208 H 63.594255215767106 93.99498553200137 165.6389080133374 H 0.0 **** 0.06
209 H 63.463453748484426 95.55825490969333 166.48042719925832 H 0.0 **** 0.06
210 H 64.06955349221957 94.12789770319596 167.34959753242978 H 0.0 **** 0.06
211 C 29.938696496992918 88.31502140408493 74.55248727001396 C 0.0 **** -0.24
212 H 30.069063164534555 89.3955422181778 74.49159029871299 H 0.0 **** 0.06
213 H 29.505768760690813 88.05568583476641 75.51819828286023 H 0.0 **** 0.06
214 H 30.906590961553405 87.82579671890674 74.44411455111504 H 0.0 **** 0.06
215 H 29.273549975369775 87.98333496759328 73.75510257495199 H 0.0 **** 0.06
216 C 184.00074592444747 191.89558169243054 11.710142832828424 C 0.0 **** -0.24
217 H 185.02780010341297 192.1589472710861 11.962135720276336 H 0.0 **** 0.06
218 H 183.8587587477441 190.822259084844 11.836797325055542 H 0.0 **** 0.06
219 H 183.7988911088541 192.17034352553864 10.674352930358467 H 0.0 **** 0.06
220 H 183.31651385246238 192.43290759077496 12.367933462404281 H 0.0 **** 0.06
221 C 76.59891049629233 164.07758937952264 43.80599492796405 C 0.0 **** -0.24
222 H 77.60193552617757 163.72601894829447 43.56471054350169 H 0.0 **** 0.06
223 H 75.94367926569699 163.22133951962547 43.968295146459 H 0.0 **** 0.06
224 H 76.21584165399476 164.6771553234432 42.979975506374046 H 0.0 **** 0.06
225 H 76.63457958105771 164.6851914142554 44.70980719128778 H 0.0 **** 0.06
226 C 182.13346294739728 68.58689847175884 67.6410737588347 C 0.0 **** -0.24
227 H 182.43027665302452 67.78304781969399 68.31400679652802 H 0.0 **** 0.06
228 H 181.69701026158617 69.40167588871145 68.21878471644601 H 0.0 **** 0.06
229 H 181.3986602297298 68.21081716094955 66.92926834346076 H 0.0 **** 0.06
230 H 183.0079409947424 68.95072767194983 67.10174306986448 H 0.0 **** 0.06
231 C 165.91867984980945 77.32953902297656 27.38986588512236 C 0.0 **** -0.24
232 H 166.61281694486865 76.52328916528263 27.152387465932094 H 0.0 **** 0.06
233 H 166.3692077140646 78.28578982582682 27.12341103510579 H 0.0 **** 0.06
234 H 165.69844869296435 77.31668558005596 28.457289963228078 H 0.0 **** 0.06
235 H 164.9955910078686 77.19197171512054 26.8262530995203 H 0.0 **** 0.06
236 C 45.79038060227174 194.54790480177417 143.99304394428464 C 0.0 **** -0.24
237 H 45.501203497862676 194.10423155399178 144.94445644507937 H 0.0 **** 0.06
238 H 44.96700668427755 194.45620342209062 143.28370593690198 H 0.0 **** 0.06
239 H 46.666813116857924 194.03097218040054 143.60176290084326 H 0.0 **** 0.06
240 H 46.02718879747269 195.60189335204564 144.14060803929135 H 0.0 **** 0.06
241 C 73.91671867000606 196.51463141743352 56.98562182594618 C 0.0 **** -0.24
242 H 73.59588914674448 197.5213669383857 56.716576928389145 H 0.0 **** 0.06
243 H 74.37932947950931 196.53287008339618 57.973601970674636 H 0.0 **** 0.06
244 H 74.63782728668052 196.15552463928162 56.2527672793975 H 0.0 **** 0.06
245 H 73.05244300272226 195.8510736552983 57.00213832128388 H 0.0 **** 0.06
246 C 75.48572654611894 83.34617753090549 47.961087606560426 C 0.0 **** -0.24
247 H 75.00358913718253 83.4244378210488 46.98662930403573 H 0.0 **** 0.06
248 H 75.1066977749631 82.46824753656858 48.48431533312228 H 0.0 **** 0.06
249 H 75.27097370672044 84.2401160815208 48.54551998107712 H 0.0 **** 0.06
250 H 76.56370653235018 83.25105660398276 47.82587918710183 H 0.0 **** 0.06
251 C 115.8225007164436 60.836274736272685 64.4963332825858 C 0.0 **** -0.24
252 H 115.68392973149757 60.47053377611721 65.51322548474735 H 0.0 **** 0.06
253 H 114.93971894164831 60.60011388566619 63.90237914022066 H 0.0 **** 0.06
254 H 116.69718957513932 60.356981292097714 64.05440301042944 H 0.0 **** 0.06
255 H 115.97081516810412 61.91567288451921 64.51511057192607 H 0.0 **** 0.06
256 C 85.83609052092977 58.55969164383788 5.052857188544202 C 0.0 **** -0.24
257 H 85.19040635025674 57.95215621771047 5.685759841787629 H 0.0 **** 0.06
258 H 86.0805017922895 58.00636214684215 4.146050298045857 H 0.0 **** 0.06
259 H 86.75276085797499 58.79818390083932 5.591918471906979 H 0.0 **** 0.06
260 H 85.32056662486325 59.48291064843869 4.787182709911647 H 0.0 **** 0.06
261 C 156.8601365186912 174.13862933805402 197.85878000159875 C 0.0 **** -0.24
262 H 155.8483837434788 174.34656458953035 198.20620536183617 H 0.0 **** 0.06
263 H 156.84246486518566 173.9377124715848 196.7880338849082 H 0.0 **** 0.06
264 H 157.25399669368522 173.27033748856064 198.38527552103892 H 0.0 **** 0.06
265 H 157.49577435290848 175.0023274181266 198.05594571895227 H 0.0 **** 0.06
266 C 131.25364548151447 23.994118777649646 198.8839025531258 C 0.0 **** -0.24
267 H 131.8327977627191 23.10700035849993 199.1412130479781 H 0.0 **** 0.06
268 H 131.06470588398105 24.005026392639707 197.81031418029494 H 0.0 **** 0.06
269 H 131.8131374831379 24.885955489373657 199.16433810460185 H 0.0 **** 0.06
270 H 130.30464327062765 23.976966512607305 199.4208296977473 H 0.0 **** 0.06
271 C 214.70252544160724 61.092322061703385 62.96138803391112 C 0.0 **** -0.24
272 H 214.33708270404617 60.27037980685003 62.346028247386144 H 0.0 **** 0.06
273 H 213.89326061917487 61.46051677063184 63.59208387401337 H 0.0 **** 0.06
274 H 215.05673342663732 61.89757829798498 62.31776917567923 H 0.0 **** 0.06
275 H 215.52198260136095 60.740464383096935 63.58772361940069 H 0.0 **** 0.06
276 C 134.69192768537357 61.73121990403075 213.8744674837949 C 0.0 **** -0.24
277 H 134.5962015687266 61.592136032054555 212.79814629348908 H 0.0 **** 0.06
278 H 135.64536036342264 61.324131098549174 214.21041533882243 H 0.0 **** 0.06
279 H 133.8768463682652 61.214673671174495 214.38121354468115 H 0.0 **** 0.06
280 H 134.6485422621339 62.79546978920479 214.10781494611564 H 0.0 **** 0.06
281 C 7.331671564234782 70.46897264695927 74.87058740398105 C 0.0 **** -0.24
282 H 7.761498172950354 70.77579388935264 75.8243011736095 H 0.0 **** 0.06
283 H 6.873324323133289 71.33054249576544 74.38530260595338 H 0.0 **** 0.06
284 H 6.575463497375608 69.7023263985149 75.04285186882616 H 0.0 **** 0.06
285 H 8.117413840813342 70.06566634388368 74.23113275218203 H 0.0 **** 0.06
286 C 188.577683114911 126.4873458406726 86.48948212360428 C 0.0 **** -0.24
287 H 188.41647919088967 125.41269287596366 86.40980513868011 H 0.0 **** 0.06
288 H 188.80003000357203 126.74548786828042 87.52549549867375 H 0.0 **** 0.06
289 H 187.67790728001398 127.01371135020874 86.16824550740408 H 0.0 **** 0.06
290 H 189.41461589696232 126.77778290404346 85.85539463244798 H 0.0 **** 0.06
291 C 68.30692206425634 207.0034604298104 9.886534561549581 C 0.0 **** -0.24
292 H 69.04877496521675 207.49920031090315 10.5127409034136 H 0.0 **** 0.06
293 H 67.69788159445473 206.3404926969083 10.501811445173871 H 0.0 **** 0.06
294 H 68.81416398561849 206.4213008205111 9.11641964859757 H 0.0 **** 0.06
295 H 67.6693985726591 207.75208080277056 9.416900171804514 H 0.0 **** 0.06
296 C 36.58065675087306 178.71399291121088 158.0971054574132 C 0.0 **** -0.24
297 H 36.382928732117705 177.65928764448358 158.28729368072567 H 0.0 **** 0.06
298 H 36.79671674160909 179.21823753790557 159.03878245442144 H 0.0 **** 0.06
299 H 35.705284712581204 179.16959760583194 157.6334878292081 H 0.0 **** 0.06
300 H 37.43673229749447 178.80903900832874 157.42904106203804 H 0.0 **** 0.06
301 C 11.50260092431185 64.20676593773628 209.24008913775447 C 0.0 **** -0.24
302 H 12.259257770673003 63.43669985151452 209.39747024721336 H 0.0 **** 0.06
303 H 11.429827705505772 64.43073885452198 208.17551159741163 H 0.0 **** 0.06
304 H 11.784406704666537 65.10862415478475 209.7836959791577 H 0.0 **** 0.06
305 H 10.539904589787199 63.84897531970768 209.60270980335582 H 0.0 **** 0.06
306 C 118.33996319460358 63.15614363775012 173.4058115139717 C 0.0 **** -0.24
307 H 119.16714885210563 63.5611826117983 172.8240268187997 H 0.0 **** 0.06
308 H 118.2996397300847 63.6539673351063 174.3754773060881 H 0.0 **** 0.06
309 H 118.48724886492657 62.08668225570466 173.55252348013394 H 0.0 **** 0.06
310 H 117.4038459850628 63.32408623153836 172.87274022255798 H 0.0 **** 0.06
311 C 12.795151624915803 63.48348750206685 116.74431943368224 C 0.0 **** -0.24
312 H 12.8593848429921 62.68033650582635 116.0096523517099 H 0.0 **** 0.06
313 H 13.162096098399374 64.40987372184173 116.30115639256182 H 0.0 **** 0.06
314 H 13.402378001348836 63.23019973826368 117.61300151747518 H 0.0 **** 0.06
315 H 11.757075836285438 63.61282209950588 117.05057317802597 H 0.0 **** 0.06
316 C 94.20531784595177 128.44038700966217 68.89973835560579 C 0.0 **** -0.24
317 H 94.77278730342071 129.22871840543985 68.40600953571828 H 0.0 **** 0.06
318 H 93.68161445078773 127.84624857167682 68.15121621316905 H 0.0 **** 0.06
319 H 93.48130949583411 128.8871058890815 69.58174957373654 H 0.0 **** 0.06
320 H 94.8855178283513 127.8005049064368 69.46196252488329 H 0.0 **** 0.06
321 C 127.28708320282881 82.36332877319137 86.11527522865013 C 0.0 **** -0.24
322 H 127.45769313380787 81.98564833937598 85.10722965691367 H 0.0 **** 0.06
323 H 128.06274094876164 83.08813269968005 86.3670201476926 H 0.0 **** 0.06
324 H 127.318322887695 81.53630060490514 86.82354467038645 H 0.0 **** 0.06
325 H 126.31110074084533 82.84553886225001 86.16177023683763 H 0.0 **** 0.06
326 C 134.2426388023738 140.71695719505902 41.759823066626254 C 0.0 **** -0.24
327 H 133.9937240448907 141.7777418827622 41.75508893825477 H 0.0 **** 0.06
328 H 133.79253071571532 140.23416425493048 40.89142635273117 H 0.0 **** 0.06
329 H 133.85917412584593 140.258087905431 42.67069953464352 H 0.0 **** 0.06
330 H 135.32625604688377 140.5978009652212 41.72122737181927 H 0.0 **** 0.06
331 C 61.17408173599085 158.51111458534672 80.95658743013882 C 0.0 **** -0.24
332 H 60.933223195271864 157.46364346729257 81.13776291327713 H 0.0 **** 0.06
333 H 61.93513654943246 158.83673544834193 81.66521691660535 H 0.0 **** 0.06
334 H 60.27598985804872 159.11652044825786 81.0820699744936 H 0.0 **** 0.06
335 H 61.55040244518216 158.62614773693093 79.9391719464632 H 0.0 **** 0.06
336 C 210.42060384623545 23.816275936165397 205.48050265206967 C 0.0 **** -0.24
337 H 211.50179239537755 23.90997843544136 205.58799367422523 H 0.0 **** 0.06
338 H 209.9305284405118 24.235003838504156 206.3603561645265 H 0.0 **** 0.06
339 H 210.15518040343198 22.76412698925708 205.3822066211544 H 0.0 **** 0.06
340 H 210.09673299391972 24.35719369217918 204.59195790352928 H 0.0 **** 0.06
341 C 164.64918866320807 172.8847976954872 186.68309440026457 C 0.0 **** -0.24
342 H 163.90911011625002 172.08480309736527 186.64771731038138 H 0.0 **** 0.06
343 H 164.15998176732134 173.82045188393022 186.95589654067453 H 0.0 **** 0.06
344 H 165.11625253796836 172.99052279386922 185.70438879504874 H 0.0 **** 0.06
345 H 165.41002308908733 172.6431829184562 187.4242235291903 H 0.0 **** 0.06
346 C 24.85629238760177 38.26968555429187 110.9833437947939 C 0.0 **** -0.24
347 H 24.787382595347708 39.335917185515825 110.7665773445146 H 0.0 **** 0.06
348 H 25.589549208933647 38.106889585045565 111.77334572256758 H 0.0 **** 0.06
349 H 25.165023057074166 37.736610604228076 110.08459655935077 H 0.0 **** 0.06
350 H 23.88207745112436 37.90256497696703 111.30839902111283 H 0.0 **** 0.06
351 C 99.56431547693508 189.26297259063062 91.57333938178515 C 0.0 **** -0.24
352 H 98.90277944952562 189.16432575391667 90.71280465328506 H 0.0 **** 0.06
353 H 99.63501753329068 190.3136578180751 91.85795656318611 H 0.0 **** 0.06
354 H 100.55498799414731 188.88896638427568 91.31436165562148 H 0.0 **** 0.06
355 H 99.1641384444654 188.68638171656184 92.4062832060197 H 0.0 **** 0.06
356 C 44.4855841388452 182.62107589310273 130.1790080567016 C 0.0 **** -0.24
357 H 44.812856329166465 183.5392237080764 129.6922929232024 H 0.0 **** 0.06
358 H 44.02831947287861 182.86258744200572 131.13826523026518 H 0.0 **** 0.06
359 H 45.34426586603584 181.96836010646646 130.33960054683075 H 0.0 **** 0.06
360 H 43.757271552853936 182.11361956821003 129.54664503791713 H 0.0 **** 0.06
361 C 215.37179070668918 129.83875680233677 53.09779681354236 C 0.0 **** -0.24
362 H 215.21900197288662 129.97496084343567 52.02765421477312 H 0.0 **** 0.06
363 H 215.95295425078137 130.67256487262836 53.49026739237789 H 0.0 **** 0.06
364 H 215.90916732399694 128.90701372294728 53.272674861477554 H 0.0 **** 0.06
365 H 214.40472308138766 129.80000285059555 53.600410479283624 H 0.0 **** 0.06
366 C 70.93499024884954 107.25396648907396 8.054542819292692 C 0.0 **** -0.24
367 H 69.92034795175749 107.23298351639475 7.65569588625992 H 0.0 **** 0.06
368 H 71.1007493671234 108.19676177091559 8.57471691309948 H 0.0 **** 0.06
369 H 71.64933162022396 107.15889402235798 7.235994843359649 H 0.0 **** 0.06
370 H 71.06853404969007 106.42560953204311 8.750217987359207 H 0.0 **** 0.06
371 C 187.16496246568664 133.0825062570383 171.35945068733628 C 0.0 **** -0.24
372 H 187.62911892665278 132.52021173074525 170.54925763573567 H 0.0 **** 0.06
373 H 187.9370123178441 133.45336713411928 172.03385366601077 H 0.0 **** 0.06
374 H 186.48264613303604 132.43241693832334 171.9079271697238 H 0.0 **** 0.06
375 H 186.60911968656322 133.92403871925222 170.94471815400755 H 0.0 **** 0.06
376 C 20.963497990977544 95.95715801786646 16.36919406559666 C 0.0 **** -0.24
377 H 21.008147041708526 95.43074494686228 17.32229210221024 H 0.0 **** 0.06
378 H 21.479385738974884 95.37281797016995 15.607009256087153 H 0.0 **** 0.06
379 H 21.44523530539601 96.92955056686013 16.46963320389355 H 0.0 **** 0.06
380 H 19.922228368543017 96.09516446664195 16.07877209294736 H 0.0 **** 0.06
381 C 147.82054673612197 78.58670386441332 138.46804584814151 C 0.0 **** -0.24
382 H 147.82134207710686 78.34615378725391 137.40553178121547 H 0.0 **** 0.06
383 H 148.54228524663318 79.38109455845563 138.66087245936666 H 0.0 **** 0.06
384 H 148.0938243227784 77.70026536000228 139.0414979346366 H 0.0 **** 0.06
385 H 146.82584723442784 78.91889999064375 138.76505724509838 H 0.0 **** 0.06
386 C 162.58843844202022 83.38406109320276 147.00995321774445 C 0.0 **** -0.24
387 H 162.63763501283927 83.92540821236507 146.06548769676937 H 0.0 **** 0.06
388 H 162.31762297035147 82.34649322140068 146.82025347973206 H 0.0 **** 0.06
389 H 161.83803532235424 83.84523742294509 147.65309994282086 H 0.0 **** 0.06
390 H 163.56087548728232 83.42318608073803 147.5013925067243 H 0.0 **** 0.06
391 C 100.5404803929461 50.364669757570965 205.3300216547999 C 0.0 **** -0.24
392 H 101.5133255904809 50.85343993488058 205.39717894343462 H 0.0 **** 0.06
393 H 100.05072938916904 50.39696426510977 206.3038194644221 H 0.0 **** 0.06
394 H 100.67553132479911 49.327925300119716 205.02456579344522 H 0.0 **** 0.06
395 H 99.92400672176298 50.88397664181751 204.5959544117171 H 0.0 **** 0.06
396 C 79.93117166052929 161.24364783624418 52.19907238843888 C 0.0 **** -0.24
397 H 79.11993661254024 161.91650459895214 52.47815950934762 H 0.0 **** 0.06
398 H 80.68623960084142 161.79768199199808 51.64130837222632 H 0.0 **** 0.06
399 H 79.53841477833231 160.4389069371944 51.578314594809115 H 0.0 **** 0.06
400 H 80.37948347893064 160.8222536746869 53.098739331415175 H 0.0 **** 0.06
401 C 211.1403641249001 158.91394357867335 67.88182179931036 C 0.0 **** -0.24
402 H 210.15148812899264 159.09004913980334 67.45872224917751 H 0.0 **** 0.06
403 H 211.7501360889354 159.80972056687426 67.76450226024474 H 0.0 **** 0.06
404 H 211.61351013336267 158.08060899321652 67.36350197448253 H 0.0 **** 0.06
405 H 211.04427700890483 158.67515751910636 68.94188767111638 H 0.0 **** 0.06
406 C 12.148661622237285 9.865160137450474 149.90601167747286 C 0.0 **** -0.24
407 H 12.58111081265173 10.658746200241808 150.51483347762638 H 0.0 **** 0.06
408 H 11.89954231492726 9.014757940249154 150.54228665267595 H 0.0 **** 0.06
409 H 12.869462479268918 9.554252900192296 149.15059064901766 H 0.0 **** 0.06
410 H 11.245102985519623 10.23200689129473 149.41855050514982 H 0.0 **** 0.06
411 C 191.16614461754546 163.80732268440676 93.58436987388315 C 0.0 **** -0.24
412 H 192.1682790624313 163.67139788546086 93.178358628411 H 0.0 **** 0.06
413 H 191.2084744146835 164.48711277147987 94.43520226495711 H 0.0 **** 0.06
414 H 190.77166687277855 162.8436093334334 93.9073079978288 H 0.0 **** 0.06
415 H 190.5168882574743 164.22605440512876 92.81550573746658 H 0.0 **** 0.06
416 C 48.13340153585362 137.71410325029376 137.95156257405574 C 0.0 **** -0.24
417 H 48.25291159516945 138.1077741404796 138.96027744454045 H 0.0 **** 0.06
418 H 47.84661172734023 136.66440694151476 138.0034121607386 H 0.0 **** 0.06
419 H 49.07567899135877 137.80733396020963 137.41159278881207 H 0.0 **** 0.06
420 H 47.359209439806975 138.27744494641234 137.43074027569355 H 0.0 **** 0.06
421 C 155.34041085407995 203.7257107188 214.94427212440326 C 0.0 **** -0.24
422 H 154.81294908124556 203.25080430722062 214.11690756256905 H 0.0 **** 0.06
423 H 154.64287482643073 204.34001903357174 215.5135681106455 H 0.0 **** 0.06
424 H 156.14050678980362 204.3527758650937 214.55199936467957 H 0.0 **** 0.06
425 H 155.7633870711942 202.95867993751108 215.5936264580247 H 0.0 **** 0.06
426 C 121.05980803695623 199.54943523372907 146.5086515474809 C 0.0 **** -0.24
427 H 121.54499587828228 198.9931511002332 145.7066154769534 H 0.0 **** 0.06
428 H 119.99430937367343 199.31722488727857 146.51850601882512 H 0.0 **** 0.06
429 H 121.19701146026178 200.61764725820055 146.34347160760444 H 0.0 **** 0.06
430 H 121.50200396548534 199.26856077995964 147.46359835698888 H 0.0 **** 0.06
431 C 121.43346160386382 199.06360488943366 37.591440068740084 C 0.0 **** -0.24
432 H 121.89123120242014 199.8858387264558 38.140549012645764 H 0.0 **** 0.06
433 H 120.69193013895897 198.57392544074574 38.22354392058956 H 0.0 **** 0.06
434 H 122.2015434133291 198.343618939707 37.30802745056427 H 0.0 **** 0.06
435 H 120.94821045257454 199.45053963651173 36.69585035006557 H 0.0 **** 0.06
436 C 87.50925219384966 11.09489069924031 31.075361018406184 C 0.0 **** -0.24
437 H 88.21392169674847 11.388478876090872 31.8531354096676 H 0.0 **** 0.06
438 H 86.73727124017906 10.456155937763086 31.5058659174708 H 0.0 **** 0.06
439 H 88.03871876315706 10.548748719074865 30.294033146958583 H 0.0 **** 0.06
440 H 87.0488878336286 11.985578745069034 30.647751853810078 H 0.0 **** 0.06
441 C 4.841544827296275 58.0298023658422 105.25909054135956 C 0.0 **** -0.24
442 H 5.706530706763601 57.95129086751754 105.91683326519698 H 0.0 **** 0.06
443 H 4.273678082465267 57.09898627615921 105.29364394303299 H 0.0 **** 0.06
444 H 5.17681474499318 58.21367678029121 104.23838567812031 H 0.0 **** 0.06
445 H 4.20800179021893 58.85411396099714 105.58689498710119 H 0.0 **** 0.06
446 C 68.80415197312168 115.04615438031406 10.602287522494237 C 0.0 **** -0.24
447 H 68.22498177743844 115.65891408347689 11.292708813198033 H 0.0 **** 0.06
448 H 69.26696508609872 114.22293819822436 11.147248337191172 H 0.0 **** 0.06
449 H 69.57899257283778 115.65623516418081 10.137348139626909 H 0.0 **** 0.06
450 H 68.14488245185812 114.64621041563215 9.831315619545677 H 0.0 **** 0.06
451 C 94.16298059214087 37.029044407146415 64.66009109882435 C 0.0 **** -0.24
452 H 94.28389205729563 38.10586765737784 64.53866928973741 H 0.0 **** 0.06
453 H 93.37000587987849 36.67573945839811 64.00041552138293 H 0.0 **** 0.06
454 H 93.90278889555616 36.8069175171058 65.694321749204 H 0.0 **** 0.06
455 H 95.09763850480205 36.529403302105834 64.4049176418531 H 0.0 **** 0.06
456 C 3.1770812404640196 97.31850730629996 54.731919694008496 C 0.0 **** -0.24
457 H 2.8094787813117534 96.95412517398331 55.69129200635747 H 0.0 **** 0.06
458 H 2.858360177869457 96.64035384128543 53.939746156038325 H 0.0 **** 0.06
459 H 4.265530925862379 97.3652348111526 54.75364403590224 H 0.0 **** 0.06
460 H 2.77384297778039 98.31357456875658 54.54345965496451 H 0.0 **** 0.06
461 C 57.68752415755719 176.98702054835104 9.211740248899332 C 0.0 **** -0.24
462 H 57.631119285657576 177.72312853166386 8.41080227534826 H 0.0 **** 0.06
463 H 56.71551437290006 176.90481638103296 9.698402960774047 H 0.0 **** 0.06
464 H 58.43381757278449 177.3010490416204 9.941755582323708 H 0.0 **** 0.06
465 H 57.96972472820133 176.01959499556466 8.796858618576948 H 0.0 **** 0.06
466 C 54.12676795085906 112.96227935605185 134.01005776202072 C 0.0 **** -0.24
467 H 53.63162950878018 113.85004408504415 134.40432779201336 H 0.0 **** 0.06
468 H 54.02755820006723 112.14378848295189 134.72305653708838 H 0.0 **** 0.06
469 H 55.183142377962554 113.17807393196853 133.8490642444716 H 0.0 **** 0.06
470 H 53.66576845617789 112.67943480979659 133.0637979867579 H 0.0 **** 0.06
471 C 54.254002359279866 209.4344529811233 72.20167019609751 C 0.0 **** -0.24
472 H 53.90001289549059 210.404456021148 71.852281155543 H 0.0 **** 0.06
473 H 54.578119731521554 209.51876602330827 73.2390738692523 H 0.0 **** 0.06
474 H 55.09033631415906 209.10913579578656 71.58425999694167 H 0.0 **** 0.06
475 H 53.445478635814936 208.70665194198799 72.13162609409444 H 0.0 **** 0.06
476 C 116.37546087519347 125.8337451320471 114.90642498157159 C 0.0 **** -0.24
477 H 116.49256491440006 124.75181887698845 114.96575755372767 H 0.0 **** 0.06
478 H 116.17339059044586 126.1213348972259 113.87411597633864 H 0.0 **** 0.06
479 H 117.29212254309026 126.3175252533669 115.24559652904351 H 0.0 **** 0.06
480 H 115.54452392791863 126.14455777638507 115.53963065500541 H 0.0 **** 0.06
481 C 105.70965420136788 192.2591691910049 48.09355301226566 C 0.0 **** -0.24
482 H 105.51109784393499 193.3306625513556 48.128588698148576 H 0.0 **** 0.06
483 H 105.22597085034009 191.77334558644438 48.94150760602787 H 0.0 **** 0.06
484 H 106.7848159185008 192.08721008169692 48.13972092470243 H 0.0 **** 0.06
485 H 105.3144706545658 191.8476564305705 47.16542191737824 H 0.0 **** 0.06
486 C 5.434568428316908 128.45420546534092 180.1993232482304 C 0.0 **** -0.24
487 H 5.249317320520333 128.6230576643066 179.13854235740908 H 0.0 **** 0.06
488 H 5.3076368700060925 127.39619947872553 180.4259348698948 H 0.0 **** 0.06
489 H 4.73006288454647 129.04029422945786 180.78825024849306 H 0.0 **** 0.06
490 H 6.452466518200765 128.759596797526 180.44253459003036 H 0.0 **** 0.06
491 C 69.07680470199631 62.31625557344982 194.35006401302158 C 0.0 **** -0.24
492 H 69.64185276704035 61.385865217674166 194.29810635428623 H 0.0 **** 0.06
493 H 69.37560652849248 62.96867505405237 193.52824684113364 H 0.0 **** 0.06
494 H 69.27941734550478 62.81211635605443 195.2999626164828 H 0.0 **** 0.06
495 H 68.01193592112253 62.09965666363368 194.2726010708588 H 0.0 **** 0.06
496 C 47.67763405020996 34.02217069325337 13.657460083737078 C 0.0 **** -0.24
497 H 46.75457506712304 33.49033394149399 13.888702217149898 H 0.0 **** 0.06
498 H 47.828009319051574 34.03534201352667 12.578147837581412 H 0.0 **** 0.06
499 H 48.51697955284136 33.51780053000681 14.135509234716324 H 0.0 **** 0.06
500 H 47.61015224507612 35.045442248914526 14.028002497245723 H 0.0 **** 0.06
501 C 187.38196230947062 59.77492550699691 41.645749557187486 C 0.0 **** -0.24
502 H 188.44552824838394 59.70350689352972 41.41942456603903 H 0.0 **** 0.06
503 H 187.1611843126287 60.765191240646345 42.04374953702356 H 0.0 **** 0.06
504 H 187.1159217543138 59.01809171650234 42.384179097469826 H 0.0 **** 0.06
505 H 186.80516583831786 59.61205812984838 40.735127137668314 H 0.0 **** 0.06
506 C 196.10575972308672 210.656402830497 155.36174365367015 C 0.0 **** -0.24
507 H 196.9320978830481 210.70559316599653 156.07088446726027 H 0.0 **** 0.06
508 H 195.6317324403193 211.63536072562655 155.28816568335583 H 0.0 **** 0.06
509 H 195.37557275488913 209.9240287381094 155.7053092341863 H 0.0 **** 0.06
510 H 196.4843899381538 210.36107787242588 154.38309434470824 H 0.0 **** 0.06
511 C 64.21919910481654 194.25620101374992 153.85779715683708 C 0.0 **** -0.24
512 H 63.751587365676926 193.9823407099169 154.80391392755712 H 0.0 **** 0.06
513 H 63.78654520759363 195.1887899197162 153.49432543860968 H 0.0 **** 0.06
514 H 64.04774787758515 193.466658499934 153.12689619682345 H 0.0 **** 0.06
515 H 65.2907303915 194.38670936018138 154.00742135708464 H 0.0 **** 0.06
516 C 27.23462121577387 158.75137295435695 151.1100104469029 C 0.0 **** -0.24
517 H 26.968348749971028 159.59932789924468 151.74084760366833 H 0.0 **** 0.06
518 H 27.679297968438505 157.96793280460372 151.72510172771143 H 0.0 **** 0.06
519 H 27.952066447580705 159.0716474773186 150.3544380099409 H 0.0 **** 0.06
520 H 26.339544554432166 158.36549873498012 150.6223425373056 H 0.0 **** 0.06
521 C 185.6850668835278 85.37010276255563 89.18220407834986 C 0.0 **** -0.24
522 H 185.68377278339582 86.46011925895147 89.19725412771083 H 0.0 **** 0.06
523 H 186.06133495074286 84.99436721584618 90.13330831265375 H 0.0 **** 0.06
524 H 186.32698406637945 85.01923893256833 88.37312802009467 H 0.0 **** 0.06
525 H 184.6697743989921 85.00832712513221 89.0231893722609 H 0.0 **** 0.06
526 C 40.88545684913869 181.08930525030792 139.16804218107126 C 0.0 **** -0.24
527 H 41.7902225118808 181.53033539084626 138.7502424205308 H 0.0 **** 0.06
528 H 40.53904483910274 181.6962502697611 140.00461292019378 H 0.0 **** 0.06
529 H 41.101244378114984 180.07946204771724 139.5169355526047 H 0.0 **** 0.06
530 H 40.111486296327556 181.05090130551974 138.40175512632993 H 0.0 **** 0.06
531 C 176.16274525572294 57.136003312137206 138.53219766815204 C 0.0 **** -0.24
532 H 175.92628275312038 56.47619576304986 139.36657204963944 H 0.0 **** 0.06
533 H 176.39566251782375 56.53743662479894 137.65114794311484 H 0.0 **** 0.06
534 H 177.02200279999573 57.75474483221457 138.78997379642993 H 0.0 **** 0.06
535 H 175.30489356921987 57.775013273235075 138.32090899471046 H 0.0 **** 0.06
536 C 214.53301802320465 22.15389903937688 171.90554174948176 C 0.0 **** -0.24
537 H 213.5129765608641 22.25388443019301 171.53433227173724 H 0.0 **** 0.06
538 H 215.04389443406524 21.36334014474403 171.35446272601405 H 0.0 **** 0.06
539 H 214.51014904497595 21.90059042228117 172.96582138438845 H 0.0 **** 0.06
540 H 215.06327230908096 23.095380046171442 171.76781006794678 H 0.0 **** 0.06
541 C 207.2207552717669 34.147794803474454 212.97886892898129 C 0.0 **** -0.24
542 H 206.8130843171033 33.9350858345113 213.96680638299216 H 0.0 **** 0.06
543 H 206.94827741012338 35.16128402628591 212.68321277915007 H 0.0 **** 0.06
544 H 206.81418025749554 33.4372010406214 212.25889503555658 H 0.0 **** 0.06
545 H 208.30628833357397 34.05547396926981 213.00672507400077 H 0.0 **** 0.06
546 C 202.82815279920132 200.5140584361626 96.9675957256912 C 0.0 **** -0.24
547 H 203.46226285319267 199.69199218500822 96.63700740297351 H 0.0 **** 0.06
548 H 202.15797800692815 200.16235031402834 97.75237995829197 H 0.0 **** 0.06
549 H 202.24162207085857 200.88118977185707 96.12520779301259 H 0.0 **** 0.06
550 H 203.4513716541272 201.3199810776369 97.35548371986123 H 0.0 **** 0.06
551 C 163.00289097299037 121.35816021380725 50.103026619130276 C 0.0 **** -0.24
552 H 162.96472123209975 121.63519177583805 51.15620262958049 H 0.0 **** 0.06
553 H 162.00454145197813 121.08055431196749 49.76434928001021 H 0.0 **** 0.06
554 H 163.6784314127863 120.51232721416648 49.97424466322343 H 0.0 **** 0.06
555 H 163.3630704735249 122.20400053943621 49.51750889440922 H 0.0 **** 0.06
556 C 57.215651391809615 140.30367537043747 90.96669039970841 C 0.0 **** -0.24
557 H 58.12915650252097 139.79271471002113 91.26934818853523 H 0.0 **** 0.06
558 H 57.244744193718304 141.33629069480497 91.3124494393327 H 0.0 **** 0.06
559 H 56.35488243453699 139.7966902536594 91.40424959852619 H 0.0 **** 0.06
560 H 57.13362020843405 140.286425084857 89.87919811202796 H 0.0 **** 0.06
561 C 174.68499222004783 105.70831462798621 168.89551712365073 C 0.0 **** -0.24
562 H 173.64601121629988 106.03621490234703 168.9305317303411 H 0.0 **** 0.06
563 H 174.9340949965482 105.18963976569323 169.82147248803955 H 0.0 **** 0.06
564 H 175.33534109424 106.57445346872122 168.77811624099152 H 0.0 **** 0.06
565 H 174.8240945205187 105.03233596262173 168.05128460456936 H 0.0 **** 0.06
566 C 24.917474258583624 10.844180021084156 111.13415416487781 C 0.0 **** -0.24
567 H 24.438932972773145 9.95259028734175 111.53738498519569 H 0.0 **** 0.06
568 H 24.34632493737317 11.726671014416496 111.42557699718263 H 0.0 **** 0.06
569 H 24.952474617012612 10.776887351662879 110.04712160042071 H 0.0 **** 0.06
570 H 25.932033907707506 10.921949728476719 111.52682164821029 H 0.0 **** 0.06
571 C 6.67054903947141 1.1810166072465336 161.5098900527553 C 0.0 **** -0.24
572 H 7.544793639650038 0.7064190595571631 161.065066861161 H 0.0 **** 0.06
573 H 5.92901866274741 1.374445930234515 160.7346262668823 H 0.0 **** 0.06
574 H 6.964277334948946 2.121283781279658 161.9762519965593 H 0.0 **** 0.06
575 H 6.242984326098508 0.5201497948633573 162.26439957645218 H 0.0 **** 0.06
576 C 66.15063379522235 111.09316559204602 133.92123284328585 C 0.0 **** -0.24
577 H 67.05789474913536 111.38358434457139 134.44963479458653 H 0.0 **** 0.06
578 H 66.31415815115176 111.17247134597612 132.84583963949433 H 0.0 **** 0.06
579 H 65.33275473791481 111.75246515736411 134.21407254126882 H 0.0 **** 0.06
580 H 65.89635033556816 110.06445298998445 134.17546390292745 H 0.0 **** 0.06
581 C 209.55082014840454 14.404921896968588 184.3445840350313 C 0.0 **** -0.24
582 H 208.88042600432917 13.5680404091256 184.54248860338998 H 0.0 **** 0.06
583 H 210.12977441171265 14.200504220771307 183.44417773529833 H 0.0 **** 0.06
584 H 210.22587524524056 14.536683803002163 185.18987720558155 H 0.0 **** 0.06
585 H 208.96564958089098 15.312794238801814 184.20269206109185 H 0.0 **** 0.06
586 C 146.60324979292915 200.0334799376928 173.80478172613687 C 0.0 **** -0.24
587 H 146.16627557088026 199.59105142452597 172.90910785103617 H 0.0 **** 0.06
588 H 145.92622992263188 199.89488754027974 174.64643090635556 H 0.0 **** 0.06
589 H 146.7671775314564 201.0987660781156 173.63995671194334 H 0.0 **** 0.06
590 H 147.55570649549946 199.54910860917153 174.01972306831024 H 0.0 **** 0.06
591 C 158.8418751985215 22.931814450611895 194.47377000980347 C 0.0 **** -0.24
592 H 159.32378840906009 23.768897010845834 193.9674957746711 H 0.0 **** 0.06
593 H 159.47123713580962 22.593906857655085 195.2963617234685 H 0.0 **** 0.06
594 H 158.6958302313425 22.115241206808733 193.76712431994724 H 0.0 **** 0.06
595 H 157.8749736739179 23.25169813430348 194.86392642723243 H 0.0 **** 0.06
596 C 177.3662045071192 125.86353425467401 62.25127714395313 C 0.0 **** -0.24
597 H 176.45184009588576 125.77569543617027 62.83833012903372 H 0.0 **** 0.06
598 H 178.14223172248367 126.33270804236115 62.85679086770318 H 0.0 **** 0.06
599 H 177.17378490925086 126.47486035038564 61.36930364745416 H 0.0 **** 0.06
600 H 177.69533144596528 124.87223999855236 61.9413734905786 H 0.0 **** 0.06
601 C 11.446596486797262 15.33223639103278 63.458726428553916 C 0.0 **** -0.24
602 H 11.462289858683363 15.800058331782907 64.44355509464458 H 0.0 **** 0.06
603 H 12.184943863764204 15.812601807012413 62.81683675594951 H 0.0 **** 0.06
604 H 10.45534464147056 15.44481121232647 63.01972662988385 H 0.0 **** 0.06
605 H 11.68309545258046 14.272982700472056 63.55627633420397 H 0.0 **** 0.06
606 C 185.3609535169017 10.711115982005467 191.95662330858914 C 0.0 **** -0.24
607 H 185.57324798488628 10.763635304665883 193.02483439719677 H 0.0 **** 0.06
608 H 185.64720655322458 9.730903401330721 191.5772717458108 H 0.0 **** 0.06
609 H 185.92839562487666 11.482703022866303 191.43651848762659 H 0.0 **** 0.06
610 H 184.2951910061929 10.869444094291907 191.79032049958664 H 0.0 **** 0.06
611 C 100.21915348996191 159.0092998355624 197.52427104071012 C 0.0 **** -0.24
612 H 101.06149695476279 158.47769793475115 197.9654954975589 H 0.0 **** 0.06
613 H 100.58663879255818 159.73748353913885 196.80152615118544 H 0.0 **** 0.06
614 H 99.6640935723438 159.52533584889218 198.3091847287409 H 0.0 **** 0.06
615 H 99.56263135319631 158.29834118146175 197.0242204570937 H 0.0 **** 0.06
616 C 193.18786495563296 129.39125391428132 182.1084027911159 C 0.0 **** -0.24
617 H 193.7958135969618 129.4683055157625 183.0091256205597 H 0.0 **** 0.06
618 H 192.83273924204954 128.36640001068878 181.99679923410082 H 0.0 **** 0.06
619 H 193.78907812994228 129.66394477400462 181.24018819993347 H 0.0 **** 0.06
620 H 192.33572463695714 130.06643742777288 182.18631451539494 H 0.0 **** 0.06
621 C 142.98447675505486 43.87467839823066 58.719714590840184 C 0.0 **** -0.24
622 H 142.07907381914458 44.472004274584634 58.620919715385284 H 0.0 **** 0.06
623 H 142.88642173098316 43.20542679426427 59.57517099540284 H 0.0 **** 0.06
624 H 143.839269916533 44.534149704968286 58.87038770152628 H 0.0 **** 0.06
625 H 143.13431921659412 43.28723380711618 57.813646032419555 H 0.0 **** 0.06
626 C 78.41920571687636 211.73534665606158 205.6368037122337 C 0.0 **** -0.24
627 H 77.70184849353224 211.0417468622423 206.07471702070302 H 0.0 **** 0.06
628 H 78.12805444808679 212.75835234314434 205.87734987759342 H 0.0 **** 0.06
629 H 78.43382790842769 211.6072434916262 204.55397134977227 H 0.0 **** 0.06
630 H 79.41109122689734 211.53473760344824 206.0399454420089 H 0.0 **** 0.06
631 C 15.861403808697332 64.26058667029466 192.73879038775712 C 0.0 **** -0.24
632 H 15.228156354409975 63.51218211654974 192.2619513910795 H 0.0 **** 0.06
633 H 15.538526244697493 64.4029470381331 193.77131485900094 H 0.0 **** 0.06
634 H 15.778171883805669 65.20391604300785 192.19929407293478 H 0.0 **** 0.06
635 H 16.896952635084745 63.92282319949018 192.72410780660402 H 0.0 **** 0.06
636 C 172.99372905486274 73.77048794790257 208.10153412487537 C 0.0 **** -0.24
637 H 172.52028968722408 74.70034871373197 208.4151553004345 H 0.0 **** 0.06
638 H 173.85675050707272 73.5704331596662 208.7367295237544 H 0.0 **** 0.06
639 H 173.3172395539553 73.85914612525544 207.06469768075908 H 0.0 **** 0.06
640 H 172.27872900013293 72.95146978839846 208.19058098911339 H 0.0 **** 0.06
641 C 5.208955304538279 68.54491607190683 118.48710543604572 C 0.0 **** -0.24
642 H 6.020742671551716 68.84590755183258 117.82426341047334 H 0.0 **** 0.06
643 H 4.686297500641672 69.43105668646237 118.84651155622377 H 0.0 **** 0.06
644 H 5.617426318329649 67.99375284108172 119.33391335637985 H 0.0 **** 0.06
645 H 4.512588065545856 67.90728830613442 117.94155923760572 H 0.0 **** 0.06
646 C 108.57918957206793 188.66576726239862 94.90830718621767 C 0.0 **** -0.24
647 H 108.1369607553962 189.58150880390525 95.30099184815704 H 0.0 **** 0.06
648 H 107.86858822043443 187.84565135959173 95.01038930685048 H 0.0 **** 0.06
649 H 109.48665524675447 188.43250990494442 95.46526606367796 H 0.0 **** 0.06
650 H 108.82589571507832 188.80394765324002 93.85520348277315 H 0.0 **** 0.06
651 C 203.17858678147303 57.41562152547641 115.6359113461268 C 0.0 **** -0.24
652 H 203.05184678926935 58.41389875832064 115.21693559692879 H 0.0 **** 0.06
653 H 203.32869307929624 56.69996945007716 114.827408812142 H 0.0 **** 0.06
654 H 202.28932438049284 57.14321729340372 116.20283411356631 H 0.0 **** 0.06
655 H 204.0472876500116 57.4072733599516 116.29484628936068 H 0.0 **** 0.06
656 C 71.61652483080117 75.23554951183586 26.189320750956 C 0.0 **** -0.24
657 H 72.53613293185826 75.14476225422074 25.610801296207796 H 0.0 **** 0.06
658 H 70.97593845101399 74.37522121779243 25.99150396870398 H 0.0 **** 0.06
659 H 71.0962300019762 76.14953497008447 25.90311626470914 H 0.0 **** 0.06
660 H 71.85779793835628 75.27267960524578 27.25186147420314 H 0.0 **** 0.06
661 C 141.36479438001533 31.05370231941032 131.16839147640962 C 0.0 **** -0.24
662 H 141.16741604247062 31.017916699586962 130.09671506603019 H 0.0 **** 0.06
663 H 141.63662095611085 32.07119741488755 131.4538091055632 H 0.0 **** 0.06
664 H 142.1847426515551 30.377242879379963 131.40936365857976 H 0.0 **** 0.06
665 H 140.47074519894625 30.750469590840865 131.71233273666286 H 0.0 **** 0.06
666 C 132.76409867597562 18.37144112961319 73.34049883864054 C 0.0 **** -0.24
667 H 132.0050646686591 17.725380365917346 72.8984671476365 H 0.0 **** 0.06
668 H 133.61113892931837 18.455362763466894 72.65907230692596 H 0.0 **** 0.06
669 H 133.09864836515152 17.943747566519463 74.28558976400086 H 0.0 **** 0.06
670 H 132.34111767145743 19.360251806101743 73.5179858903764 H 0.0 **** 0.06
671 C 215.33091983417637 109.07009206401155 58.70409254730113 C 0.0 **** -0.24
672 H 214.86728603427719 109.95992800789766 58.27840976989876 H 0.0 **** 0.06
673 H 214.63655232690786 108.59395628264583 59.395833544048344 H 0.0 **** 0.06
674 H 216.2386536205895 109.35301420665344 59.23772217771436 H 0.0 **** 0.06
675 H 215.5821843288315 108.37343636883323 57.90433437615458 H 0.0 **** 0.06
676 C 215.77819941265244 216.41804203725934 20.977614165849417 C 0.0 **** -0.24
677 H 215.685179646844 215.84480634304145 21.900168935526708 H 0.0 **** 0.06
678 H 215.71070774010317 217.4821942224067 21.2021116609332 H 0.0 **** 0.06
679 H 214.97626396473976 216.13877235218075 20.293547551466503 H 0.0 **** 0.06
680 H 216.74129769250112 216.20446995255213 20.513696274903808 H 0.0 **** 0.06
681 C 157.6579088723405 75.44390188874318 79.31447067333112 C 0.0 **** -0.24
682 H 157.44661275332356 74.5473103396504 79.89748669918102 H 0.0 **** 0.06
683 H 157.15415625381877 76.2983722326449 79.76769014288517 H 0.0 **** 0.06
684 H 157.29640362287432 75.30779317410354 78.29508138874111 H 0.0 **** 0.06
685 H 158.73324847698098 75.62233408178587 79.29832044737215 H 0.0 **** 0.06
686 C 114.95511166990974 49.658699621146624 69.55520346794198 C 0.0 **** -0.24
687 H 116.02602593199481 49.456657238481924 69.58498036120425 H 0.0 **** 0.06
688 H 114.47434212590093 49.19661544373115 70.41814322014746 H 0.0 **** 0.06
689 H 114.53187940670051 49.245732296594014 68.63979013550248 H 0.0 **** 0.06
690 H 114.78811830255108 50.735608700738936 69.58012712258527 H 0.0 **** 0.06
691 C 95.46277675241448 31.242767596358362 104.85591266531965 C 0.0 **** -0.24
692 H 94.98337352169032 31.224474008002062 105.83483045012782 H 0.0 **** 0.06
693 H 95.58614895198163 30.22286499580747 104.4926550292716 H 0.0 **** 0.06
694 H 96.43942612896971 31.72095671523607 104.93823106281725 H 0.0 **** 0.06
695 H 94.84152581487477 31.80491810823702 104.15785949355474 H 0.0 **** 0.06
696 C 43.33483385010885 199.26427413599544 100.2229685330529 C 0.0 **** -0.24
697 H 42.60029991727231 200.06886115583342 100.19500858748198 H 0.0 **** 0.06
698 H 43.17378400972791 198.65787284253008 101.11473171372022 H 0.0 **** 0.06
699 H 44.33768179756822 199.68928224252423 100.24742708002496 H 0.0 **** 0.06
700 H 43.224513484555246 198.64150600119228 99.33539859293442 H 0.0 **** 0.06
701 C 85.07727863141224 142.57872218962666 91.51585281068651 C 0.0 **** -0.24
702 H 84.54240399524042 142.15665542866037 92.36577568016679 H 0.0 **** 0.06
703 H 86.11860536459369 142.7503002067167 91.78972461902077 H 0.0 **** 0.06
704 H 84.6168862559851 143.52452224487166 91.23030202410462 H 0.0 **** 0.06
705 H 85.03162379917666 141.88438983680248 90.67667204236363 H 0.0 **** 0.06
706 C 9.98898851930494 211.22673675520036 44.66703644210588 C 0.0 **** -0.24
707 H 9.674493824631227 210.19275862299938 44.81299693842146 H 0.0 **** 0.06
708 H 10.287960563206667 211.37153735709006 43.62895473193538 H 0.0 **** 0.06
709 H 10.832840137078307 211.44424238333718 45.322735997146054 H 0.0 **** 0.06
710 H 9.161767498749455 211.89507489943514 44.90426972460705 H 0.0 **** 0.06
711 C 194.25701418818917 106.52011857382276 102.08099374135612 C 0.0 **** -0.24
712 H 193.97451549246645 107.47337216956258 102.52820198413137 H 0.0 **** 0.06
713 H 195.0165688948242 106.04048918431396 102.69911059829592 H 0.0 **** 0.06
714 H 194.6577954411515 106.69308363340922 101.08177673443454 H 0.0 **** 0.06
715 H 193.38176340800277 105.87533941314528 102.01506947184943 H 0.0 **** 0.06
716 C 90.80815694727646 27.99057606963251 33.11838990611545 C 0.0 **** -0.24
717 H 90.13272896333079 27.327132794971305 33.65814280284934 H 0.0 **** 0.06
718 H 91.64999512531169 27.41520205908573 32.730789082469215 H 0.0 **** 0.06
719 H 91.17655447884447 28.762086127391242 33.793855383282505 H 0.0 **** 0.06
720 H 90.27467729145009 28.45668869519919 32.289872786707974 H 0.0 **** 0.06
721 C 129.3392355036343 116.13311754782352 211.9381938545303 C 0.0 **** -0.24
722 H 129.63093095996152 115.93294389870881 210.90690950101808 H 0.0 **** 0.06
723 H 129.3774794847086 115.2070645652325 212.5128323734185 H 0.0 **** 0.06
724 H 128.32407868899116 116.53211790670757 211.95736482257945 H 0.0 **** 0.06
725 H 130.02324037173537 116.8613502243352 212.3740821972504 H 0.0 **** 0.06
726 C 83.12182174673609 80.94243506856692 3.1430893478614053 C 0.0 **** -0.24
727 H 83.51733326910397 81.01441377884667 4.156521559194971 H 0.0 **** 0.06
728 H 83.60676140702606 80.11588179787181 2.6224125034850374 H 0.0 **** 0.06
729 H 83.31744418442213 81.87292622517937 2.60983592617481 H 0.0 **** 0.06
730 H 82.04718111388223 80.76564538934501 3.1840167319890043 H 0.0 **** 0.06
731 C 18.737984420897618 26.174490773032076 78.33589600851998 C 0.0 **** -0.24
732 H 18.34589690960277 27.16500073165875 78.10386249405842 H 0.0 **** 0.06
733 H 18.000684767122664 25.419436372680934 78.06295606712804 H 0.0 **** 0.06
734 H 18.948135267657733 26.108603940948925 79.40362804012425 H 0.0 **** 0.06
735 H 19.65623415738635 26.00690478186337 77.77344646817245 H 0.0 **** 0.06
736 C 51.37299166641657 100.52610836066945 113.68648306795451 C 0.0 **** -0.24
737 H 51.02466571495626 99.94449007107322 112.83285004565694 H 0.0 **** 0.06
738 H 50.95395918175848 100.10984771857461 114.60388594115442 H 0.0 **** 0.06
739 H 51.05123529880723 101.5615086447299 113.57627770532547 H 0.0 **** 0.06
740 H 52.46090028372447 100.4858776091966 113.73337071169452 H 0.0 **** 0.06
741 C 123.45572071115818 36.563476214725085 205.037853768802 C 0.0 **** -0.24
742 H 123.81395697649664 36.58611733997759 206.06744849878595 H 0.0 **** 0.06
743 H 124.29681004934481 36.397580718254005 204.36461863326477 H 0.0 **** 0.06
744 H 122.97913726305076 37.51470221239242 204.79823224079388 H 0.0 **** 0.06
745 H 122.73229236401865 35.75655253983416 204.92296800449805 H 0.0 **** 0.06
746 C 211.54943954821533 163.81355721618434 42.519181580716634 C 0.0 **** -0.24
747 H 211.7908321480015 163.03657267132928 43.245323981401896 H 0.0 **** 0.06
748 H 212.44944266756664 164.38158562661042 42.28304125756236 H 0.0 **** 0.06
749 H 210.79655785595503 164.4809031499801 42.937764531568575 H 0.0 **** 0.06
750 H 211.16241395593542 163.35276707728175 41.61044467029424 H 0.0 **** 0.06
751 C 36.7038511531872 43.69255570686681 203.14047909974374 C 0.0 **** -0.24
752 H 36.29164293681771 42.8660023353807 202.56111387950733 H 0.0 **** 0.06
753 H 36.63969044288683 44.6123464748041 202.55814371311854 H 0.0 **** 0.06
754 H 37.74710215190356 43.48469549846703 203.3790050530165 H 0.0 **** 0.06
755 H 36.13577741408628 43.806772110098336 204.06484321221498 H 0.0 **** 0.06
756 C 158.09283692793576 139.21713788809978 209.5978533758848 C 0.0 **** -0.24
757 H 157.06513556535396 139.41888836239463 209.89813286925857 H 0.0 **** 0.06
758 H 158.38481021310895 138.22610635082248 209.94692392583548 H 0.0 **** 0.06
759 H 158.75275481777942 139.96581980882092 210.03624121623267 H 0.0 **** 0.06
760 H 158.16764311868167 139.25682209164785 208.51158346541837 H 0.0 **** 0.06
761 C 36.43354050061299 160.8253930192215 108.8067468459209 C 0.0 **** -0.24
762 H 35.815603999466646 160.38757420709214 108.02232775032972 H 0.0 **** 0.06
763 H 35.918655393379424 160.73903961389036 109.763664060192 H 0.0 **** 0.06
764 H 36.61244247214245 161.87666802924187 108.58324727502837 H 0.0 **** 0.06
765 H 37.38514990319169 160.29651524840588 108.85616322518898 H 0.0 **** 0.06
766 C 30.628583573432707 6.585812669916038 139.5831964224185 C 0.0 **** -0.24
767 H 30.12104080018341 7.430991464705073 140.04756617351325 H 0.0 **** 0.06
768 H 31.30007927657047 6.947909638158251 138.80349745855438 H 0.0 **** 0.06
769 H 29.890951181784715 5.91475101443379 139.14431850320705 H 0.0 **** 0.06
770 H 31.204346895700667 6.048890201870222 140.3377983144938 H 0.0 **** 0.06
771 C 2.783000499728338 182.88715878150455 172.34626872289388 C 0.0 **** -0.24
772 H 3.4583533488823193 183.61300937464898 171.89174852889698 H 0.0 **** 0.06
773 H 2.2646787452906167 183.35045644647025 173.18614012916197 H 0.0 **** 0.06
774 H 3.356024523024331 182.03047654575215 172.69962992020834 H 0.0 **** 0.06
775 H 2.05427411152143 182.55589836577218 171.60622174427178 H 0.0 **** 0.06
776 C 7.556762620489394 91.73981857999995 78.97524883733824 C 0.0 **** -0.24
777 H 8.46504836283151 91.37401257837955 78.49809153776836 H 0.0 **** 0.06
778 H 7.449865719161039 91.27754359554324 79.95627280149161 H 0.0 **** 0.06
779 H 6.695104466033001 91.48524043914908 78.35731652007824 H 0.0 **** 0.06
780 H 7.615413673796809 92.8223565392759 79.08747964554532 H 0.0 **** 0.06
781 C 144.6341442490027 183.47694031093835 105.34696295821674 C 0.0 **** -0.24
782 H 145.65076801566073 183.23309578112634 105.65451147468961 H 0.0 **** 0.06
783 H 144.06077465677492 183.80636964119103 106.21369115689076 H 0.0 **** 0.06
784 H 144.164115890551 182.59335086169187 104.91469895209956 H 0.0 **** 0.06
785 H 144.6612777232674 184.2743896378587 104.60420021913892 H 0.0 **** 0.06
786 C 41.45638980302404 207.45769988637937 178.39872780992687 C 0.0 **** -0.24
787 H 40.78995573691999 208.31926483696662 178.3623464660983 H 0.0 **** 0.06
788 H 42.4093899196306 207.7160559790897 177.93578498018456 H 0.0 **** 0.06
789 H 41.00392702660116 206.6256434672201 177.86050326141458 H 0.0 **** 0.06
790 H 41.62275713495501 207.17136108483433 179.43784193296224 H 0.0 **** 0.06
791 C 124.57390478205356 155.19812397889496 34.35219237276311 C 0.0 **** -0.24
792 H 124.71118544310873 154.13191519597956 34.53055710337155 H 0.0 **** 0.06
793 H 124.45979548418667 155.37618837007807 33.28329889671697 H 0.0 **** 0.06
794 H 125.44256205603055 155.74358971238274 34.72123276863066 H 0.0 **** 0.06
795 H 123.68107474073521 155.54110010882897 34.87565778709224 H 0.0 **** 0.06
796 C 173.8450257415543 157.5319192496293 76.34549253011177 C 0.0 **** -0.24
797 H 173.63803532959616 156.5455232970744 76.76155039238746 H 0.0 **** 0.06
798 H 174.76139233067735 157.9255643045646 76.7861987762053 H 0.0 **** 0.06
799 H 173.0156261153814 158.2018666857528 76.57235996119356 H 0.0 **** 0.06
800 H 173.9644006414225 157.45399835990133 75.26503193464565 H 0.0 **** 0.06
801 C 29.612467080637856 162.05622230738322 83.49813622321818 C 0.0 **** -0.24
802 H 29.9265018620532 162.05500981669837 84.54210644751095 H 0.0 **** 0.06
803 H 28.753488570905873 162.71585542345622 83.3771808596511 H 0.0 **** 0.06
804 H 29.339115812821703 161.04376112003268 83.19994907473614 H 0.0 **** 0.06
805 H 30.43265894508255 162.40883110412574 82.8727151808335 H 0.0 **** 0.06
806 C 12.344289906955538 56.302362523616864 125.30686011408879 C 0.0 **** -0.24
807 H 11.561791008818489 55.54688627626908 125.23920479135047 H 0.0 **** 0.06
808 H 12.521064040490899 56.731681055637125 124.32061387563955 H 0.0 **** 0.06
809 H 13.262666717458103 55.84255135816311 125.67230486726642 H 0.0 **** 0.06
810 H 12.032285204653647 57.08761018598753 125.9950703309032 H 0.0 **** 0.06
811 C 156.0013223660232 107.4447500236793 216.55240230788127 C 0.0 **** -0.24
812 H 154.98215967594308 107.82848869565835 216.5955088551204 H 0.0 **** 0.06
813 H 156.44233318347034 107.69291863790964 215.58700760423213 H 0.0 **** 0.06
814 H 155.98822374981717 106.36177780510424 216.67778869953443 H 0.0 **** 0.06
815 H 156.59335782264247 107.89555378178328 217.34986588269314 H 0.0 **** 0.06
816 C 209.0248911576998 213.89909486251665 155.63834381164042 C 0.0 **** -0.24
817 H 208.77160790574692 214.38778791056328 156.57857134637095 H 0.0 **** 0.06
818 H 209.99699994333739 214.25470651728287 155.29398058857578 H 0.0 **** 0.06
819 H 208.26633952963766 214.13379930152013 154.89134956999146 H 0.0 **** 0.06
820 H 209.06556660458733 212.8203608412593 155.78846227121517 H 0.0 **** 0.06
821 C 25.245839402450628 71.0033477522029 147.60851294513668 C 0.0 **** -0.24
822 H 24.538496146263398 70.34530780367243 148.11329614776054 H 0.0 **** 0.06
823 H 24.864717707081752 72.02391493240191 147.6213192550299 H 0.0 **** 0.06
824 H 25.373455123424662 70.67547116397543 146.57679384115175 H 0.0 **** 0.06
825 H 26.206243574714392 70.96736930182607 148.1224453419478 H 0.0 **** 0.06
826 C 141.44872932764275 67.21752106957376 155.5900466201694 C 0.0 **** -0.24
827 H 142.13168152357036 67.80120866517785 156.20762676278684 H 0.0 **** 0.06
828 H 141.78196445005864 67.24914607817294 154.55274080808863 H 0.0 **** 0.06
829 H 140.44526019255835 67.63717044162189 155.66265681200395 H 0.0 **** 0.06
830 H 141.43815919708447 66.18501199963504 155.93776980385553 H 0.0 **** 0.06
831 C 70.00429203747979 0.06878111858148372 145.59699667013854 C 0.0 **** -0.24
832 H 68.98049480711683 0.12357502438790391 145.22524673136093 H 0.0 **** 0.06
833 H 70.00144717793904 -0.3237819485452249 146.61342781254257 H 0.0 **** 0.06
834 H 70.44478872550724 1.0662779413834187 145.5936937887925 H 0.0 **** 0.06
835 H 70.58848210772453 -0.5890888981176658 144.95430457976067 H 0.0 **** 0.06
836 C 101.71501783517988 200.99432317952122 200.8090964981747 C 0.0 **** -0.24
837 H 101.57886734903298 199.92780804279369 200.98985505108507 H 0.0 **** 0.06
838 H 101.34645907412653 201.55723888693728 201.66693126718397 H 0.0 **** 0.06
839 H 101.15903755013306 201.28485722671323 199.9180364459242 H 0.0 **** 0.06
840 H 102.77330244342943 201.2060472159588 200.66311799595368 H 0.0 **** 0.06
841 C 81.79203735757949 90.03646902492636 44.715280022831834 C 0.0 **** -0.24
842 H 81.40219692731227 89.02121825525757 44.65140962266787 H 0.0 **** 0.06
843 H 81.3715928367015 90.63867265948687 43.90877623857338 H 0.0 **** 0.06
844 H 82.87821943846222 90.0156892052114 44.62520323947594 H 0.0 **** 0.06
845 H 81.51629532121336 90.47228751023954 45.675631893946004 H 0.0 **** 0.06
846 C 27.01775443967857 65.42722512598347 80.00332076029947 C 0.0 **** -0.24
847 H 26.93775007688498 64.71296303813888 79.18347253107335 H 0.0 **** 0.06
848 H 27.842107845759088 66.11362835845804 79.80764190049827 H 0.0 **** 0.06
849 H 27.20281349798192 64.89204623329329 80.93411763207969 H 0.0 **** 0.06
850 H 26.08764531381209 65.98971004442242 80.08576995889977 H 0.0 **** 0.06
851 C 53.19047908822158 77.08952404613525 46.27204258411322 C 0.0 **** -0.24
852 H 53.61505267194312 77.06123171730344 47.27532666401956 H 0.0 **** 0.06
853 H 52.59988649786828 76.19006019198822 46.10195354479245 H 0.0 **** 0.06
854 H 53.995929578390346 77.14094635867652 45.53880973845054 H 0.0 **** 0.06
855 H 52.55321658546569 77.9676620928844 46.172281897994594 H 0.0 **** 0.06
856 C 102.7037428171862 214.81178220213323 176.88014286500197 C 0.0 **** -0.24
857 H 103.65815099131305 214.30523394673952 177.0177365066806 H 0.0 **** 0.06
858 H 101.9055809832227 214.20475856580595 177.30876524889564 H 0.0 **** 0.06
859 H 102.5189000597511 214.95517844896062 175.81497629186345 H 0.0 **** 0.06
860 H 102.73128730836743 215.78059547617661 177.3780748523285 H 0.0 **** 0.06
861 C 153.23021767665153 202.84659702120845 94.44607585054094 C 0.0 **** -0.24
862 H 152.6792502505562 202.15759120005535 93.8057946521365 H 0.0 **** 0.06
863 H 154.20950119006568 202.4266122933131 94.67430107840424 H 0.0 **** 0.06
864 H 152.67612905477625 203.00225250222593 95.37205172316793 H 0.0 **** 0.06
865 H 153.35290075234474 203.8002889629568 93.93158318797184 H 0.0 **** 0.06
866 C 8.837843212975415 94.58639345693342 126.55117024576873 C 0.0 **** -0.24
867 H 9.853904111171687 94.59594256763097 126.94395540256357 H 0.0 **** 0.06
868 H 8.343535730689155 93.6592525126 126.84424182079135 H 0.0 **** 0.06
869 H 8.867756587458928 94.6536250271339 125.46421338272944 H 0.0 **** 0.06
870 H 8.285133181331645 95.43588573604285 126.95266822721482 H 0.0 **** 0.06
871 C 197.99807081259524 169.14321447149342 5.406360109965362 C 0.0 **** -0.24
872 H 198.4654448550666 168.4019410188007 6.0549318618511165 H 0.0 **** 0.06
873 H 196.941365016419 168.90277511439484 5.2828978108508124 H 0.0 **** 0.06
874 H 198.48840149584748 169.1345812374651 4.433554680421736 H 0.0 **** 0.06
875 H 198.09607465169165 170.13198354345707 5.85477633473954 H 0.0 **** 0.06
876 C 87.1560478137104 16.847062340277347 211.03106849116477 C 0.0 **** -0.24
877 H 87.59606430379215 16.693665648703984 212.01648976239179 H 0.0 **** 0.06
878 H 87.61833841595633 16.164281053708407 210.31731834478435 H 0.0 **** 0.06
879 H 87.32712586116757 17.875419014608013 210.71350750380464 H 0.0 **** 0.06
880 H 86.08421468463102 16.654175090891698 211.0772571278124 H 0.0 **** 0.06
881 C 97.63726279394668 73.6408833050881 12.421576612679758 C 0.0 **** -0.24
882 H 98.05304306042261 73.43870323957037 13.408227063941638 H 0.0 **** 0.06
883 H 97.49527647096808 72.70027830964295 11.888140312671226 H 0.0 **** 0.06
884 H 98.32399210670663 74.27553748789109 11.86140783714103 H 0.0 **** 0.06
885 H 96.67792316857934 74.14743854353401 12.528189996282435 H 0.0 **** 0.06
886 C 146.02388086815 135.64607782525746 214.7135596663061 C 0.0 **** -0.24
887 H 146.35104712139446 136.0047457839836 215.6896522236254 H 0.0 **** 0.06
888 H 146.8967140712889 135.41938509146036 214.09978709293972 H 0.0 **** 0.06
889 H 145.42608229577047 136.41595983372963 214.22469392505383 H 0.0 **** 0.06
890 H 145.4238265711839 134.7453354769541 214.83971903390324 H 0.0 **** 0.06
891 C 115.12969067957924 37.19062000277819 107.06005415908713 C 0.0 **** -0.24
892 H 114.11141358948079 36.8502580366881 106.87351829985364 H 0.0 **** 0.06
893 H 115.27606048784541 38.166995686746986 106.59769548172115 H 0.0 **** 0.06
894 H 115.83551237604168 36.4767755200765 106.63430312906256 H 0.0 **** 0.06
895 H 115.29527457980969 37.2684127242309 108.13383550255018 H 0.0 **** 0.06
896 C 141.5141348637182 120.5830815073157 0.22852486957745555 C 0.0 **** -0.24
897 H 142.50959490379654 120.37621537158596 0.6228113969818594 H 0.0 **** 0.06
898 H 140.9469251925878 119.65332705677515 0.17005254677013681 H 0.0 **** 0.06
899 H 141.60146970357192 121.01925205290773 -0.7667313902522608 H 0.0 **** 0.06
900 H 141.0006170357471 121.28274982774296 0.8876279046118043 H 0.0 **** 0.06
901 C 200.5311697861411 67.22435587186132 148.25799197882816 C 0.0 **** -0.24
902 H 200.54538532706147 66.88102330333129 149.29255991166707 H 0.0 **** 0.06
903 H 200.18008545392166 68.25611894676712 148.2231078705587 H 0.0 **** 0.06
904 H 199.86299788461184 66.59237838160854 147.67424128439097 H 0.0 **** 0.06
905 H 201.5375354737036 67.16876388857857 147.84364096631083 H 0.0 **** 0.06
906 C 96.95486319580537 80.99131448588622 130.49867110220595 C 0.0 **** -0.24
907 H 96.31447031809431 80.15981567056934 130.79172196227302 H 0.0 **** 0.06
908 H 97.98560562036654 80.64450927840272 130.41830719928356 H 0.0 **** 0.06
909 H 96.89350183702443 81.77895976247845 131.24938731501595 H 0.0 **** 0.06
910 H 96.6258750077361 81.38197323209425 129.53526793225137 H 0.0 **** 0.06
911 C 73.82110069734773 109.35683524310504 99.07674494931818 C 0.0 **** -0.24
912 H 74.55941762011201 108.75627892876209 98.54569470094471 H 0.0 **** 0.06
913 H 73.67989480724134 110.30324888786878 98.5551941477185 H 0.0 **** 0.06
914 H 74.17066319034524 109.54849557474121 100.09116079853068 H 0.0 **** 0.06
915 H 72.87434073032671 108.8175927097691 99.11506205083079 H 0.0 **** 0.06
916 C 169.22311021949628 158.89262408930261 180.44881993891423 C 0.0 **** -0.24
917 H 169.55316393791503 157.95737865512302 180.90164072798956 H 0.0 **** 0.06
918 H 170.09259210564963 159.4639908031334 180.12087711327786 H 0.0 **** 0.06
919 H 168.66218626160946 159.47267957467324 181.18067584035478 H 0.0 **** 0.06
920 H 168.58635660440285 158.67527507919496 179.59100271732723 H 0.0 **** 0.06
921 C 161.11343454869547 198.77596285690848 155.54321395303026 C 0.0 **** -0.24
922 H 160.48066371478652 197.99003285367314 155.13056732111556 H 0.0 **** 0.06
923 H 162.13028608729675 198.65826250050895 155.16703483030847 H 0.0 **** 0.06
924 H 161.11695970992128 198.70509343631818 156.6308624411123 H 0.0 **** 0.06
925 H 160.72532249091745 199.74921408204793 155.24396120342584 H 0.0 **** 0.06
926 C 187.24370061247703 186.93976969692943 5.273127132497834 C 0.0 **** -0.24
927 H 186.43413222678407 187.66740957426856 5.22961447226637 H 0.0 **** 0.06
928 H 186.82638641085308 185.9372637756942 5.375253999866928 H 0.0 **** 0.06
929 H 187.88163929678214 187.156468499235 6.130335398583412 H 0.0 **** 0.06
930 H 187.83266859894061 186.9965973232731 4.358402339475887 H 0.0 **** 0.06
931 C 189.5476999998057 154.51351742219487 149.43142916709837 C 0.0 **** -0.24
932 H 189.60239824396248 154.32359555534788 148.359480509834 H 0.0 **** 0.06
933 H 188.58772363621614 154.16473855575236 149.81337135764636 H 0.0 **** 0.06
934 H 189.6448628428303 155.58339902167614 149.6160419586849 H 0.0 **** 0.06
935 H 190.35442264622014 153.98219387444436 149.93662219933424 H 0.0 **** 0.06
936 C 15.986741733048177 128.94990173057317 53.33663403496689 C 0.0 **** -0.24
937 H 16.468733253207944 128.49171438630339 52.47322528916476 H 0.0 **** 0.06
938 H 14.918452577742187 129.04972834764766 53.146055825067435 H 0.0 **** 0.06
939 H 16.41836953925025 129.93507106560372 53.51282697337484 H 0.0 **** 0.06
940 H 16.141634458664157 128.3223380632288 54.21504467139755 H 0.0 **** 0.06
941 C 211.0679083681232 178.9124575058746 168.29495309900216 C 0.0 **** -0.24
942 H 210.4896666024494 178.5651004718626 169.1510796584672 H 0.0 **** 0.06
943 H 212.0766801880283 178.50194612292756 168.34661515929906 H 0.0 **** 0.06
944 H 211.11772848138764 180.00127961228463 168.30842585567706 H 0.0 **** 0.06
945 H 210.5876044252043 178.58257403472612 167.37461504806134 H 0.0 **** 0.06
946 C 65.29608277816914 140.93909228117604 159.30985765661796 C 0.0 **** -0.24
947 H 65.48481186390879 141.5877565533297 160.165632826631 H 0.0 **** 0.06
948 H 66.2272487303045 140.77658551212915 158.76633703174764 H 0.0 **** 0.06
949 H 64.56670163093372 141.41020527614216 158.6505998674839 H 0.0 **** 0.06
950 H 64.90685484272723 139.98255916865088 159.65946910580135 H 0.0 **** 0.06
951 C 95.17725589035366 180.0028709065232 117.09213890132462 C 0.0 **** -0.24
952 H 94.82039318523609 179.01060821884496 116.81553645953072 H 0.0 **** 0.06
953 H 96.214240396833 180.1161888552469 116.77592486999528 H 0.0 **** 0.06
954 H 95.11227026150893 180.12305033949082 118.17379268961638 H 0.0 **** 0.06
955 H 94.5639123000716 180.7595493596017 116.60449818400353 H 0.0 **** 0.06
956 C 211.8740056331263 196.19905790077144 50.29916528683063 C 0.0 **** -0.24
957 H 211.84966658169708 196.83881378915623 49.416969644524485 H 0.0 **** 0.06
958 H 210.94702233530438 195.62912557605944 50.35895023948622 H 0.0 **** 0.06
959 H 211.98037258693932 196.81602210148765 51.191103834513754 H 0.0 **** 0.06
960 H 212.71873733709828 195.5141765686741 50.22733186366435 H 0.0 **** 0.06
961 C 77.10192041474038 215.74477813618336 34.35275841698909 C 0.0 **** -0.24
962 H 76.70768355586249 216.6860064459431 33.96884082786342 H 0.0 **** 0.06
963 H 76.27978827609105 215.12849782890507 34.71834217939666 H 0.0 **** 0.06
964 H 77.79520006735588 215.94848760627025 35.169747362566454 H 0.0 **** 0.06
965 H 77.62504634777532 215.21781334288661 33.55516798868972 H 0.0 **** 0.06
966 C 167.34001544777524 15.621548560965678 171.82046728302294 C 0.0 **** -0.24
967 H 166.4090650460359 15.37123666019535 172.32939796832136 H 0.0 **** 0.06
968 H 167.98111300287508 16.187968542694676 172.49726673351608 H 0.0 **** 0.06
969 H 167.12087783710504 16.222371593347006 170.9388230817916 H 0.0 **** 0.06
970 H 167.8475879568682 14.705541401646997 171.5195650494784 H 0.0 **** 0.06
971 C 134.3301716928296 115.97968810554256 203.48537658179924 C 0.0 **** -0.24
972 H 134.0633716453442 114.92481157585222 203.55469028481286 H 0.0 **** 0.06
973 H 133.6310432160036 116.48760360008454 202.82011018335479 H 0.0 **** 0.06
974 H 135.34166714649172 116.07243271918982 203.08914113271783 H 0.0 **** 0.06
975 H 134.28440874950064 116.43101379376638 204.47566592589328 H 0.0 **** 0.06
976 C 55.57107656280745 87.8015970241375 25.947779009360204 C 0.0 **** -0.24
977 H 55.71821468341409 86.79865904622153 25.5469674277374 H 0.0 **** 0.06
978 H 54.55035537667749 87.89780709719543 26.317735786411447 H 0.0 **** 0.06
979 H 55.743315859009186 88.53556876147479 25.160265671049274 H 0.0 **** 0.06
980 H 56.27221032388668 87.97250776753725 26.764550152541688 H 0.0 **** 0.06
981 C 6.443086522043416 28.693359026143057 203.58150671368162 C 0.0 **** -0.24
982 H 7.516138438612614 28.773544211422788 203.7581194916315 H 0.0 **** 0.06
983 H 6.062765250197089 27.793127844210176 204.0656561833146 H 0.0 **** 0.06
984 H 6.254743651826814 28.63671826576369 202.51016134622932 H 0.0 **** 0.06
985 H 5.9400205315183 29.568005320270046 203.99353535554312 H 0.0 **** 0.06
986 C 75.20137626752587 35.011095010627855 87.30295386988207 C 0.0 **** -0.24
987 H 74.44307620951501 35.66112387821562 86.8681612704301 H 0.0 **** 0.06
988 H 75.94532934977327 34.76346749828252 86.54563189943086 H 0.0 **** 0.06
989 H 74.73282630811038 34.09608973745233 87.66489504839832 H 0.0 **** 0.06
990 H 75.68638203929466 35.524140168358144 88.13429268710205 H 0.0 **** 0.06
991 C 30.955360404734222 144.9784232468125 15.841027370771172 C 0.0 **** -0.24
992 H 31.067542440371767 145.72775492157723 16.623749764467902 H 0.0 **** 0.06
993 H 30.362788583398753 145.3909219830374 15.024592093620413 H 0.0 **** 0.06
994 H 30.452506238879323 144.10061804063486 16.248190560312423 H 0.0 **** 0.06
995 H 31.938957713160562 144.6921945721815 15.467435839965788 H 0.0 **** 0.06
996 C 159.2737800603304 192.8715532837279 170.72339213726377 C 0.0 **** -0.24
997 H 158.25227438039093 192.7006287261056 170.3843699108195 H 0.0 **** 0.06
998 H 159.86818089599254 193.26729525130077 169.89926284191267 H 0.0 **** 0.06
999 H 159.7054734938093 191.930128621203 171.06367661611353 H 0.0 **** 0.06
1000 H 159.2693037612537 193.5874065044865 171.54506802075485 H 0.0 **** 0.06
1001 C 19.926815923445787 147.7489854728488 216.88534212923244 C 0.0 **** -0.24
1002 H 19.72372625159302 146.68817400650943 216.73859147429403 H 0.0 **** 0.06
1003 H 19.04140442537158 148.23483408881276 217.2965011668739 H 0.0 **** 0.06
1004 H 20.17969773943028 148.20560912887015 215.92835426955077 H 0.0 **** 0.06
1005 H 20.760444098029453 147.86725442188356 217.57649669496826 H 0.0 **** 0.06
1006 C 216.7333854274925 169.19382833805304 177.01450539400693 C 0.0 **** -0.24
1007 H 217.49250176538408 168.66194250831495 177.58815074479202 H 0.0 **** 0.06
1008 H 216.53911102457602 168.6582070179795 176.08528454070887 H 0.0 **** 0.06
1009 H 217.08859109557048 170.19927635222558 176.78768306634697 H 0.0 **** 0.06
1010 H 215.81490947996576 169.25477667849322 177.5974473755633 H 0.0 **** 0.06
1011 C 20.866821458943946 0.646091822909213 182.21610789047642 C 0.0 **** -0.24
1012 H 19.790875101837628 0.779126463658038 182.1065389845918 H 0.0 **** 0.06
1013 H 21.16352465237759 -0.2996185037383725 181.76369622798282 H 0.0 **** 0.06
1014 H 21.12639736887178 0.64033528440644 183.27490407105398 H 0.0 **** 0.06
1015 H 21.386895924125383 1.4654211525631453 181.71912081994122 H 0.0 **** 0.06
1016 C 69.07842841475212 107.86161108514229 159.68845867654454 C 0.0 **** -0.24
1017 H 69.82891509644442 107.79859896296519 158.90103227673126 H 0.0 **** 0.06
1018 H 68.36076961959677 107.0485093351396 159.57388749887087 H 0.0 **** 0.06
1019 H 68.55898573035245 108.81697412721265 159.6188247765893 H 0.0 **** 0.06
1020 H 69.56480165112477 107.78287069770586 160.66091647439058 H 0.0 **** 0.06
1021 C 13.684172190049594 6.364551310707569 198.63105443464715 C 0.0 **** -0.24
1022 H 14.173526422821737 5.955381450237468 197.74644230538024 H 0.0 **** 0.06
1023 H 14.079746667448546 7.358796872095979 198.83750473147492 H 0.0 **** 0.06
1024 H 13.872717413121904 5.713084265355008 199.48383020165113 H 0.0 **** 0.06
1025 H 12.610134387353696 6.429182392659811 198.45351069964187 H 0.0 **** 0.06
1026 C 188.78494893220156 67.20217313857124 174.8121429294294 C 0.0 **** -0.24
1027 H 189.22908810482977 67.62557655233093 173.9106302557798 H 0.0 **** 0.06
1028 H 189.57607813518538 66.86399556536095 175.4816760928881 H 0.0 **** 0.06
1029 H 188.15150381897334 66.35779421610147 174.54137245276993 H 0.0 **** 0.06
1030 H 188.18421613147564 67.96136684641198 175.31176091542633 H 0.0 **** 0.06
1031 C 206.72006390828227 160.90867592500967 11.575015773125145 C 0.0 **** -0.24
1032 H 206.3596328447495 159.94969304387382 11.94733743532072 H 0.0 **** 0.06
1033 H 207.71018789113248 160.779640907197 11.138485602197491 H 0.0 **** 0.06
1034 H 206.77643328852577 161.61917743365632 12.400364944260772 H 0.0 **** 0.06
1035 H 206.03365699717585 161.28517292989662 10.817458730894387 H 0.0 **** 0.06
1036 C 172.7842582761894 85.50291216772844 51.78181570035164 C 0.0 **** -0.24
1037 H 172.19226199520244 84.6153868390529 52.00934231830617 H 0.0 **** 0.06
1038 H 173.79600706833236 85.20324994404548 51.50690283171977 H 0.0 **** 0.06
1039 H 172.82146436080075 86.1491869538071 52.65804895891502 H 0.0 **** 0.06
1040 H 172.32623012743014 86.04076294420081 50.952275539341315 H 0.0 **** 0.06
1041 C 138.21067055615498 146.0818521438356 216.62856468110823 C 0.0 **** -0.24
1042 H 137.7857211048734 147.05765406080866 216.86229466947302 H 0.0 **** 0.06
1043 H 139.10710252489673 146.21144126775334 216.02131799442128 H 0.0 **** 0.06
1044 H 137.48023031404097 145.4901699499065 216.07755165382636 H 0.0 **** 0.06
1045 H 138.4704935204719 145.56804213611917 217.55420848064378 H 0.0 **** 0.06
1046 C 141.62856995627624 11.234713021531661 101.59805964485135 C 0.0 **** -0.24
1047 H 142.417812655766 11.778854819256367 101.07958804782207 H 0.0 **** 0.06
1048 H 141.23503182725557 11.85027050936634 102.40769158401697 H 0.0 **** 0.06
1049 H 142.03360932890394 10.30978457389466 102.00799695894462 H 0.0 **** 0.06
1050 H 140.82752982481554 11.000691947737579 100.89637025966842 H 0.0 **** 0.06
1051 C 181.24349340861062 177.95504656714388 54.604011738320594 C 0.0 **** -0.24
1052 H 182.15402891242826 178.03429134586992 54.0101864307004 H 0.0 **** 0.06
1053 H 180.7881855810162 176.97766890702349 54.44244182147557 H 0.0 **** 0.06
1054 H 180.5455657308849 178.73599918147224 54.3045687838453 H 0.0 **** 0.06
1055 H 181.4879455050656 178.0719378918909 55.65977010387746 H 0.0 **** 0.06
1056 C 119.87530291679424 11.195932211201239 66.58419379859674 C 0.0 **** -0.24
1057 H 120.32062980647486 10.230265111448858 66.82641100297906 H 0.0 **** 0.06
1058 H 119.5004508588397 11.176132479389821 65.5608438864196 H 0.0 **** 0.06
1059 H 120.62836881683488 11.977342283483296 66.68108120104682 H 0.0 **** 0.06
1060 H 119.05154751271938 11.397925710792038 67.26927394523904 H 0.0 **** 0.06
1061 C 46.66281107377928 78.03707806989381 211.45319837873598 C 0.0 **** -0.24
1062 H 47.64521518044677 77.56504957447426 211.42503070438903 H 0.0 **** 0.06
1063 H 46.78168580909325 79.11780126067895 211.5369679194982 H 0.0 **** 0.06
1064 H 46.10647841526445 77.6646419656365 212.31275317054576 H 0.0 **** 0.06
1065 H 46.12024754774198 77.80132194727913 210.53777606908312 H 0.0 **** 0.06
1066 C 70.16534811193094 8.283383493138302 74.33419650854222 C 0.0 **** -0.24
1067 H 70.71475578066162 7.3536224555268745 74.4782164558984 H 0.0 **** 0.06
1068 H 70.73717835311226 8.94561119840904 73.68341790230892 H 0.0 **** 0.06
1069 H 70.00947222085563 8.766699940743166 75.29817059448658 H 0.0 **** 0.06
1070 H 69.19990490687692 8.068198621948 73.87570219652156 H 0.0 **** 0.06
1071 C 9.819390151828102 0.42233697658756597 149.15338098156923 C 0.0 **** -0.24
1072 H 10.423340780458005 0.999224201278885 148.45216922729753 H 0.0 **** 0.06
1073 H 9.974583521747903 -0.64171012855941 148.97456287498176 H 0.0 **** 0.06
1074 H 8.766260348375496 0.666310607991278 149.01061321233726 H 0.0 **** 0.06
1075 H 10.114170133408393 0.6673505900385024 150.17352715749388 H 0.0 **** 0.06
1076 C 156.46375584587827 85.87951631514882 142.59905231706887 C 0.0 **** -0.24
1077 H 156.3611510258982 85.65011994341101 143.65914413978783 H 0.0 **** 0.06
1078 H 156.55797857264855 86.95695961395272 142.46843022622306 H 0.0 **** 0.06
1079 H 155.58375003767156 85.5226374636312 142.06336545871648 H 0.0 **** 0.06
1080 H 157.35296317583737 85.38564643582747 142.2054395283153 H 0.0 **** 0.06
1081 C 58.450883536181905 102.63657749125252 83.45803773386143 C 0.0 **** -0.24
1082 H 58.56240611003683 101.96121121139419 84.30577131528383 H 0.0 **** 0.06
1083 H 57.529476644888376 102.4004471039741 82.9247339409959 H 0.0 **** 0.06
1084 H 59.30044935504624 102.52033245586546 82.7857847067088 H 0.0 **** 0.06
1085 H 58.4095029883829 103.66550690388448 83.81669922711069 H 0.0 **** 0.06
1086 C 127.07410623010749 48.564557915671514 169.00064861012945 C 0.0 **** -0.24
1087 H 127.43136516416043 48.06784364797312 168.09893462229428 H 0.0 **** 0.06
1088 H 126.08718361992736 48.98816430323774 168.8143705182011 H 0.0 **** 0.06
1089 H 127.7662014905655 49.36131848498428 169.27436907558638 H 0.0 **** 0.06
1090 H 127.0126927218265 47.84125141446947 169.81400168813417 H 0.0 **** 0.06
1091 C 151.0310018203039 34.05107787639929 34.252975183020396 C 0.0 **** -0.24
1092 H 150.84795006762573 33.033321044906245 33.908571028158235 H 0.0 **** 0.06
1093 H 150.33745312670692 34.29253987086241 35.05874776858482 H 0.0 **** 0.06
1094 H 150.88410020676366 34.74576680974701 33.42544128435259 H 0.0 **** 0.06
1095 H 152.0550791276043 34.132543560684894 34.616763776873825 H 0.0 **** 0.06
1096 C 5.061491353598633 32.38680402352435 172.6379485673715 C 0.0 **** -0.24
1097 H 5.164814345920483 32.74333459161318 173.66307610073494 H 0.0 **** 0.06
1098 H 5.936142566373704 31.792896267523105 172.37020430042642 H 0.0 **** 0.06
1099 H 4.980255777200966 33.24015962565278 171.9642289339525 H 0.0 **** 0.06
1100 H 4.1656215406475425 31.772056977421727 172.55513871573305 H 0.0 **** 0.06
1101 C 110.9844031502718 71.71735762049872 52.66846796828207 C 0.0 **** -0.24
1102 H 110.13295580929191 72.38736046951647 52.5514092844204 H 0.0 **** 0.06
1103 H 111.73745980436824 71.95225748264352 51.916419523797 H 0.0 **** 0.06
1104 H 110.65383986111893 70.68651843229713 52.543297654095966 H 0.0 **** 0.06
1105 H 111.41142232941301 71.84424505291435 53.66333898439109 H 0.0 **** 0.06
1106 C 90.92135371215657 57.2818442439106 49.94759977695625 C 0.0 **** -0.24
1107 H 89.95921703370412 57.01221017246003 50.383306810010765 H 0.0 **** 0.06
1108 H 91.26558033004473 58.2216592410641 50.37911100586422 H 0.0 **** 0.06
1109 H 90.81242598062444 57.395388758769954 48.86869452586501 H 0.0 **** 0.06
1110 H 91.6487241470834 56.49687989283575 50.15819982395067 H 0.0 **** 0.06
1111 C 43.25102442555789 52.39561343658244 16.54104038737711 C 0.0 **** -0.24
1112 H 43.00301251523638 52.968676584861385 15.647117643259321 H 0.0 **** 0.06
1113 H 42.35024841927901 51.9152667311991 16.925652918282992 H 0.0 **** 0.06
1114 H 43.6581714561043 53.06431206667838 17.29900513788283 H 0.0 **** 0.06
1115 H 43.99048404719019 51.63469042657488 16.29239250487717 H 0.0 **** 0.06
1116 C 56.53857977319926 48.81306945217452 211.9116119342301 C 0.0 **** -0.24
1117 H 56.25101672430158 49.78968210946621 212.3001944046495 H 0.0 **** 0.06
1118 H 57.555546153538785 48.58041534154036 212.22972764775787 H 0.0 **** 0.06
1119 H 56.49215915704629 48.82696124035549 210.82241852108524 H 0.0 **** 0.06
1120 H 55.8556169798408 48.05410797565271 212.294981806883 H 0.0 **** 0.06
1121 C 166.55730591239745 47.6024049470372 170.73562634102245 C 0.0 **** -0.24
1122 H 167.20652860951068 48.06840997576815 171.4771028039669 H 0.0 **** 0.06
1123 H 167.08711345615345 47.52764110905666 169.78572504079614 H 0.0 **** 0.06
1124 H 165.66091731327367 48.20816914358974 170.6051528044312 H 0.0 **** 0.06
1125 H 166.2770877582445 46.60524967169539 171.07420169297922 H 0.0 **** 0.06
1126 C 132.22240778379864 66.51239445552646 77.35541071329833 C 0.0 **** -0.24
1127 H 132.8336948545209 65.6340587113293 77.14783524146118 H 0.0 **** 0.06
1128 H 131.2492239769163 66.19583871181236 77.73362614628176 H 0.0 **** 0.06
1129 H 132.08701442367027 67.086539768372 76.43872323241304 H 0.0 **** 0.06
1130 H 132.71874592384614 67.1311379952786 78.10249906578493 H 0.0 **** 0.06
1131 C 175.1925287582477 202.7138481922322 30.146291262233675 C 0.0 **** -0.24
1132 H 176.24211005707244 202.78832005733128 29.86447722882393 H 0.0 **** 0.06
1133 H 175.08746754136794 202.0129757476303 30.975193014378817 H 0.0 **** 0.06
1134 H 174.61171093121297 202.35881373984228 29.293970691274822 H 0.0 **** 0.06
1135 H 174.8275185819891 203.6947677865541 30.45051232559392 H 0.0 **** 0.06
1136 C 71.95361048004264 124.89174251338157 76.64690099790573 C 0.0 **** -0.24
1137 H 71.36337191390277 125.18723698242569 77.514280724157 H 0.0 **** 0.06
1138 H 72.97069000352752 125.26821520569708 76.7545796215752 H 0.0 **** 0.06
1139 H 71.5052652447958 125.3072660052395 75.74372995305987 H 0.0 **** 0.06
1140 H 71.97340883574424 123.80472294248467 76.57408203909222 H 0.0 **** 0.06
1141 C 13.040264262316597 53.06107309653123 152.98448042752335 C 0.0 **** -0.24
1142 H 12.728698104010007 52.13548826678985 152.50038809230972 H 0.0 **** 0.06
1143 H 14.117275314477993 53.038112802104266 153.1517381957733 H 0.0 **** 0.06
1144 H 12.525547326747315 53.16228755142028 153.9402268666728 H 0.0 **** 0.06
1145 H 12.789042320579995 53.9071519853249 152.34513374519054 H 0.0 **** 0.06
1146 C 70.6239500931959 22.179866020071188 71.81946192902097 C 0.0 **** -0.24
1147 H 70.49942624770063 21.104811518282588 71.95460182180915 H 0.0 **** 0.06
1148 H 71.29213795309363 22.567220209246102 72.58855740513587 H 0.0 **** 0.06
1149 H 69.6543077968119 22.670159076731153 71.89811718887398 H 0.0 **** 0.06
1150 H 71.04996446553508 22.37390342369929 70.8352894995295 H 0.0 **** 0.06
1151 C 69.74331720531687 79.56486176817407 75.2448083413048 C 0.0 **** -0.24
1152 H 70.63712767196738 79.35184777714971 74.65806049640264 H 0.0 **** 0.06
1153 H 69.96873224861663 80.33588817788791 75.98205964365877 H 0.0 **** 0.06
1154 H 69.41741790833606 78.657926288118 75.75351828829753 H 0.0 **** 0.06
1155 H 68.95015401250686 79.9148375742775 74.58362891608442 H 0.0 **** 0.06
1156 C 23.814578640799425 49.5005694960949 15.124108359779285 C 0.0 **** -0.24
1157 H 22.813204411367877 49.52934872738825 14.693642846293102 H 0.0 **** 0.06
1158 H 24.140194740127043 48.4644072939015 15.219482330599632 H 0.0 **** 0.06
1159 H 23.80034429806024 49.96965030876527 16.108276396039997 H 0.0 **** 0.06
1160 H 24.505127815398197 50.03969750012817 14.474941983967483 H 0.0 **** 0.06
1161 C 63.965041980224896 16.18138455660484 82.13564368343974 C 0.0 **** -0.24
1162 H 63.71650647010449 16.0473243593036 83.18861476895894 H 0.0 **** 0.06
1163 H 63.16476637068524 15.773484120516628 81.51835338240268 H 0.0 **** 0.06
1164 H 64.89678091938828 15.662253808653205 81.91283673011573 H 0.0 **** 0.06
1165 H 64.08246263442192 17.244854252766885 81.92324132485321 H 0.0 **** 0.06
1166 C 174.23560705256676 154.82962900302556 140.76519537489241 C 0.0 **** -0.24
1167 H 173.64767318109264 154.2700388585207 141.49303998567717 H 0.0 **** 0.06
1168 H 175.04690209653756 155.34812113164162 141.2747013865328 H 0.0 **** 0.06
1169 H 173.59613814818778 155.55624612344644 140.26504419838034 H 0.0 **** 0.06
1170 H 174.64908321935619 154.14170066897913 140.02851621605657 H 0.0 **** 0.06
1171 C 165.74752378947613 157.69757613245162 8.028831230555312 C 0.0 **** -0.24
1172 H 164.8910191750374 157.97904252171497 8.642506776891537 H 0.0 **** 0.06
1173 H 166.38767627026127 158.56628739797117 7.880094384709025 H 0.0 **** 0.06
1174 H 165.3969967749303 157.334634213487 7.062441496018835 H 0.0 **** 0.06
1175 H 166.31067334413962 156.9106403961406 8.530263038677532 H 0.0 **** 0.06
1176 C 14.703638332014677 121.11539421180605 56.43219242801274 C 0.0 **** -0.24
1177 H 15.133033839032194 120.1184148835858 56.53417706055981 H 0.0 **** 0.06
1178 H 15.479298432396405 121.8637539739759 56.596330238034795 H 0.0 **** 0.06
1179 H 13.911449009529292 121.24601342954496 57.168249358684704 H 0.0 **** 0.06
1180 H 14.291395352721935 121.23262724794618 55.43016384961123 H 0.0 **** 0.06
1181 C 127.98051149149008 154.67242308101595 175.33757978794745 C 0.0 **** -0.24
1182 H 126.96251844236788 154.5371464538335 174.97023315692235 H 0.0 **** 0.06
1183 H 128.39887769354408 155.58664193609712 174.91823301198127 H 0.0 **** 0.06
1184 H 128.59079218605183 153.8209868346454 175.03678928812604 H 0.0 **** 0.06
1185 H 127.96719892614901 154.74352995190816 176.42514850950207 H 0.0 **** 0.06
1186 C 79.94465044762744 52.66867472588336 58.97570284285092 C 0.0 **** -0.24
1187 H 78.85489359932195 52.66759205138953 58.964933952072414 H 0.0 **** 0.06
1188 H 80.31164592980359 53.536256075763106 58.4268576344943 H 0.0 **** 0.06
1189 H 80.31249107705953 51.75718566449359 58.504873687184784 H 0.0 **** 0.06
1190 H 80.2967742541294 52.71391473682726 60.00648522073314 H 0.0 **** 0.06
1191 C 19.22147255746168 13.140160408336584 152.33755688491294 C 0.0 **** -0.24
1192 H 18.900702930633145 13.842306572673635 153.10739372131138 H 0.0 **** 0.06
1193 H 18.728743847275865 13.384470955172048 151.3963810700131 H 0.0 **** 0.06
1194 H 18.954369764263674 12.127050624716674 152.63627210313996 H 0.0 **** 0.06
1195 H 20.301468847316073 13.209227142725979 152.21152546478947 H 0.0 **** 0.06
1196 C 160.1542001924486 130.27462318868794 20.392539820386276 C 0.0 **** -0.24
1197 H 159.37165169308142 129.88185872051935 21.041774027870616 H 0.0 **** 0.06
1198 H 159.70212772846926 130.72725102941303 19.510249247739694 H 0.0 **** 0.06
1199 H 160.81388913237117 129.4620762943021 20.087385447873856 H 0.0 **** 0.06
1200 H 160.7297479889164 131.02612051969595 20.932238456810524 H 0.0 **** 0.06
1201 C 60.997785217950025 142.16107445475745 126.32721529050674 C 0.0 **** -0.24
1202 H 61.680948401217705 141.3862798905256 125.97736016733883 H 0.0 **** 0.06
1203 H 59.97888149787073 141.90110954351547 126.03994086824731 H 0.0 **** 0.06
1204 H 61.26980815265409 143.1152699793398 125.87683817369505 H 0.0 **** 0.06
1205 H 61.061263989547456 142.23898403524765 127.41229347624925 H 0.0 **** 0.06
1206 C 94.27904031051467 36.45865064477033 36.166478773107315 C 0.0 **** -0.24
1207 H 93.7287270927692 35.60832628298171 35.76311047086605 H 0.0 **** 0.06
1208 H 93.60501669094306 37.30833805414072 36.2745509748878 H 0.0 **** 0.06
1209 H 95.089224942392 36.721632498539066 35.48701168133485 H 0.0 **** 0.06
1210 H 94.69203845861632 36.195151570064695 37.13971352814184 H 0.0 **** 0.06
1211 C 142.5721932612401 127.37766682701077 182.49942317562642 C 0.0 **** -0.24
1212 H 141.7698245924724 127.51075764659002 183.22477376808658 H 0.0 **** 0.06
1213 H 142.55464800873676 126.35405062662865 182.12274664733482 H 0.0 **** 0.06
1214 H 143.5315244328341 127.57187222565706 182.979196147873 H 0.0 **** 0.06
1215 H 142.43299988067582 128.07200086494817 181.67089883666117 H 0.0 **** 0.06
1216 C 209.13463597051688 151.90043909707487 90.7369987463231 C 0.0 **** -0.24
1217 H 208.63119363617585 152.86393262914612 90.6565551715115 H 0.0 **** 0.06
1218 H 209.22864407866444 151.6273623215955 91.7881246616473 H 0.0 **** 0.06
1219 H 210.1251372797338 151.9692869288931 90.28818558366085 H 0.0 **** 0.06
1220 H 208.55066939167483 151.14168507343925 90.21455302693157 H 0.0 **** 0.06
1221 C 216.58759015940333 184.38484014095025 215.31779849340876 C 0.0 **** -0.24
1222 H 215.59028937568607 184.24206977879294 215.7343761144811 H 0.0 **** 0.06
1223 H 216.50441968175295 184.7758340562334 214.30438271272888 H 0.0 **** 0.06
1224 H 217.11233407061053 183.42996888525 215.2984635692448 H 0.0 **** 0.06
1225 H 217.14119417335226 185.09212997164508 215.93643720108648 H 0.0 **** 0.06
1226 C 89.18282891004857 22.42894392253426 52.32798699783757 C 0.0 **** -0.24
1227 H 88.7907071510033 23.43155864928228 52.50036560077602 H 0.0 **** 0.06
1228 H 90.26481942054802 22.477970595264694 52.20534092981417 H 0.0 **** 0.06
1229 H 88.73176071419716 22.013702652871117 51.4269335577231 H 0.0 **** 0.06
1230 H 88.94161405262305 21.793367839060352 53.18117666300664 H 0.0 **** 0.06
1231 C 95.4432312894379 190.24091467382016 82.02602133550306 C 0.0 **** -0.24
1232 H 94.99826875862857 190.08644795609868 81.04312433521903 H 0.0 **** 0.06
1233 H 94.86705484081233 190.98857110229275 82.57140258461942 H 0.0 **** 0.06
1234 H 96.46984234943682 190.58766198750854 81.90853020255588 H 0.0 **** 0.06
1235 H 95.43727727368866 189.30140806660037 82.57888752715064 H 0.0 **** 0.06
1236 C 17.972873983215464 163.5747823778525 121.14010105185189 C 0.0 **** -0.24
1237 H 17.197061990781066 163.7327773991571 120.39032876802305 H 0.0 **** 0.06
1238 H 18.828674269042153 163.0817739593837 120.67873925216479 H 0.0 **** 0.06
1239 H 17.58181426397101 162.94898713401912 121.94212458026611 H 0.0 **** 0.06
1240 H 18.283580502616758 164.53654360292825 121.54823208627805 H 0.0 **** 0.06
1241 C 8.958663082962147 181.999042962882 196.8458866385727 C 0.0 **** -0.24
1242 H 9.93066032942994 181.60023479454713 196.55508681174751 H 0.0 **** 0.06
1243 H 8.438202252210203 182.36628471998387 195.9604431450724 H 0.0 **** 0.06
1244 H 9.098074494240734 182.81803050615844 197.55134889468417 H 0.0 **** 0.06
1245 H 8.368397473198485 181.21195690610512 197.31456475510305 H 0.0 **** 0.06
1246 C 188.66645024065582 23.841737143995545 205.33008228412623 C 0.0 **** -0.24
1247 H 187.92936519613974 24.277990884631436 206.00462024172907 H 0.0 **** 0.06
1248 H 189.0613912893763 22.92482785095791 205.76745060850143 H 0.0 **** 0.06
1249 H 189.4796714399044 24.550589947998105 205.17319976350683 H 0.0 **** 0.06
1250 H 188.19378769836294 23.615059085437565 204.37463563034015 H 0.0 **** 0.06
1251 C 14.589627767434663 109.06614598357434 207.6570555823294 C 0.0 **** -0.24
1252 H 14.678339816461119 109.36887624217677 208.70056969589825 H 0.0 **** 0.06
1253 H 13.684079545912624 108.47287743773073 207.52634979035406 H 0.0 **** 0.06
1254 H 15.458451376362959 108.47079805589344 207.3761365191745 H 0.0 **** 0.06
1255 H 14.53818190689772 109.95331799132283 207.02493509617943 H 0.0 **** 0.06
1256 C 202.00969412434193 56.43011818053057 210.7168951137046 C 0.0 **** -0.24
1257 H 201.4598963141185 56.687122075505144 209.8115103879582 H 0.0 **** 0.06
1258 H 201.40768020690984 55.75769842701307 211.32856010791198 H 0.0 **** 0.06
1259 H 202.22735121129702 57.3373905332807 211.2792547712587 H 0.0 **** 0.06
1260 H 202.9443450404961 55.93719331792181 210.44610753750226 H 0.0 **** 0.06
1261 C 145.684302347516 121.89149000696695 151.20865081279482 C 0.0 **** -0.24
1262 H 144.7970409165751 122.11610868973075 150.61609469802096 H 0.0 **** 0.06
1263 H 146.56884470653733 122.27220922675777 150.6966470517758 H 0.0 **** 0.06
1264 H 145.77318847038873 120.81192982278223 151.33430995551169 H 0.0 **** 0.06
1265 H 145.5980859498211 122.3651165525092 152.18674987239513 H 0.0 **** 0.06
1266 C 68.6110921709691 208.88663337567095 76.70463123305035 C 0.0 **** -0.24
1267 H 67.87782421416182 208.09370770614754 76.55392244053638 H 0.0 **** 0.06
1268 H 68.49699973013261 209.3001783988578 77.70631509216804 H 0.0 **** 0.06
1269 H 68.45283916428389 209.6726237639395 75.96529554826907 H 0.0 **** 0.06
1270 H 69.61533344282043 208.47837714729306 76.59089268773084 H 0.0 **** 0.06
1271 C 161.06472630781718 26.059154321247945 185.60491866171353 C 0.0 **** -0.24
1272 H 160.61953794776798 25.077060430201428 185.44708634057406 H 0.0 **** 0.06
1273 H 161.86289401544116 26.215419311616103 184.87912826314187 H 0.0 **** 0.06
1274 H 161.47446292007825 26.1150728058562 186.6136952363041 H 0.0 **** 0.06
1275 H 160.30249548737586 26.82795919046937 185.47902830168755 H 0.0 **** 0.06
1276 C 114.69432947142036 96.77807537380566 169.51642266200918 C 0.0 **** -0.24
1277 H 114.91285486265764 95.81054638424199 169.06671563460588 H 0.0 **** 0.06
1278 H 114.16936674251104 97.40434451780474 168.794707178701 H 0.0 **** 0.06
1279 H 115.62643725691242 97.26325442874746 169.8078304778837 H 0.0 **** 0.06
1280 H 114.068430985732 96.63618229200846 170.3973554475304 H 0.0 **** 0.06
1281 C 206.69926627361966 192.39569540763188 81.62033311746133 C 0.0 **** -0.24
1282 H 207.2199742838614 193.34870580462064 81.71339485324894 H 0.0 **** 0.06
1283 H 206.4180665038737 192.03778859551647 82.61094633485855 H 0.0 **** 0.06
1284 H 207.35675711030768 191.66797578871154 81.14396025466219 H 0.0 **** 0.06
1285 H 205.804194648275 192.52867715913203 81.0141039972042 H 0.0 **** 0.06
1286 C 206.41148504123618 203.23978425381074 154.90835975890803 C 0.0 **** -0.24
1287 H 206.4127459778812 203.44327963646046 155.97926086465492 H 0.0 **** 0.06
1288 H 205.9168653889331 202.28598233958797 154.72044629029534 H 0.0 **** 0.06
1289 H 207.43786965933714 203.1955052999747 154.54573583991157 H 0.0 **** 0.06
1290 H 205.87637187703706 204.03528598006437 154.38889266932705 H 0.0 **** 0.06
1291 C 118.26708311162896 117.72548394238017 62.16656020950967 C 0.0 **** -0.24
1292 H 118.80817078078475 118.41980389123385 61.5232437322565 H 0.0 **** 0.06
1293 H 118.74036551626195 116.74385646277439 62.12007987691754 H 0.0 **** 0.06
1294 H 117.23339533822441 117.64766033223786 61.82984340444517 H 0.0 **** 0.06
1295 H 118.28883834267312 118.09080741825862 63.19322062183903 H 0.0 **** 0.06
1296 C 191.1004392717389 176.9195339493058 196.91033913165677 C 0.0 **** -0.24
1297 H 191.08450592502624 176.17567415272757 196.11348727854175 H 0.0 **** 0.06
1298 H 190.0855860770692 177.26676606698413 197.10252127183492 H 0.0 **** 0.06
1299 H 191.72288694106481 177.76208478708145 196.60913302178628 H 0.0 **** 0.06
1300 H 191.50976131153755 176.47161586919904 197.81598310275018 H 0.0 **** 0.06
1301 C 65.10585013732961 151.6885130816413 19.782465273123265 C 0.0 **** -0.24
1302 H 64.31501918772756 152.02551642704276 19.11245610339502 H 0.0 **** 0.06
1303 H 65.83618123052298 152.48764423598453 19.91124429779552 H 0.0 **** 0.06
1304 H 65.59434497959268 150.81301043523052 19.35640774487881 H 0.0 **** 0.06
1305 H 64.67476806901294 151.42973382716843 20.749947932746252 H 0.0 **** 0.06
1306 C 122.08856160994287 124.81201692372208 10.44499231498257 C 0.0 **** -0.24
1307 H 121.53203879268148 125.20181714195216 11.296888592885963 H 0.0 **** 0.06
1308 H 121.3915156320216 124.43364412621658 9.6973673652967 H 0.0 **** 0.06
1309 H 122.74021414975965 124.00258347698512 10.77723715723998 H 0.0 **** 0.06
1310 H 122.69160617872774 125.60863254890138 10.01014760974661 H 0.0 **** 0.06
1311 C 207.2615159138578 41.32599865883208 112.56659339397125 C 0.0 **** -0.24
1312 H 206.18025175581488 41.33764025185292 112.43001584299454 H 0.0 **** 0.06
1313 H 207.7132436968044 40.65247794383822 111.83804620986906 H 0.0 **** 0.06
1314 H 207.49624671157108 40.980941513733 113.57415787181422 H 0.0 **** 0.06
1315 H 207.65677242094006 42.33136183806997 112.42567750875186 H 0.0 **** 0.06
1316 C 12.983785758911324 122.71667198584892 64.78597600294978 C 0.0 **** -0.24
1317 H 12.597466193260232 122.08529417395802 63.98491394944239 H 0.0 **** 0.06
1318 H 12.284270434196912 122.708678171811 65.62244211842352 H 0.0 **** 0.06
1319 H 13.101302707028054 123.73666201858676 64.41944327039846 H 0.0 **** 0.06
1320 H 13.949992362033896 122.33407222214528 65.11520291767806 H 0.0 **** 0.06
1321 C 48.909519095199414 11.383845348393294 19.060385041410314 C 0.0 **** -0.24
1322 H 48.09035549080818 11.667081876244595 19.720853196944347 H 0.0 **** 0.06
1323 H 48.85376287085671 10.315124413770647 18.850030654556633 H 0.0 **** 0.06
1324 H 49.86100224210705 11.609851334715401 19.543998822111178 H 0.0 **** 0.06
1325 H 48.834337951643704 11.942827424715361 18.128617935225463 H 0.0 **** 0.06
1326 C 216.51395017543024 188.10942867465945 113.80219559178782 C 0.0 **** -0.24
1327 H 216.00546382238372 187.7911990994814 112.89232488890174 H 0.0 **** 0.06
1328 H 217.57356392373003 187.86156783183844 113.73080326593721 H 0.0 **** 0.06
1329 H 216.07724913340726 187.59740350921848 114.65992490489135 H 0.0 **** 0.06
1330 H 216.39969361211558 189.1860979513304 113.9237596704475 H 0.0 **** 0.06
1331 C 46.49479124277826 210.99783409152897 143.91736628642258 C 0.0 **** -0.24
1332 H 46.780809297335765 210.02474512883663 143.51962307834503 H 0.0 **** 0.06
1333 H 46.98857811470492 211.15674862705384 144.8762228130513 H 0.0 **** 0.06
1334 H 45.41495289122662 211.03180208342562 144.05439333029136 H 0.0 **** 0.06
1335 H 46.79699630257042 211.77856253235973 143.21911823202197 H 0.0 **** 0.06
1336 C 0.7136706821515304 142.16202571248618 102.96571839169616 C 0.0 **** -0.24
1337 H 0.8202049047664843 142.0700122117945 101.88567668818786 H 0.0 **** 0.06
1338 H 0.5910990218107202 143.21241572779866 103.23007259077315 H 0.0 **** 0.06
1339 H 1.6040133872582203 141.76612538691415 103.45418736249354 H 0.0 **** 0.06
1340 H -0.1605718443828721 141.6005248792199 103.2939590694399 H 0.0 **** 0.06
1341 C 123.16213540147005 214.81605084173185 125.19165317619498 C 0.0 **** -0.24
1342 H 123.61281407603657 214.37363914474878 126.08066879907504 H 0.0 **** 0.06
1343 H 123.40620384034433 214.20886118000516 124.32039406686276 H 0.0 **** 0.06
1344 H 123.5501001901407 215.82611428232954 125.05272391965319 H 0.0 **** 0.06
1345 H 122.07955700627711 214.85645224499265 125.314884232587 H 0.0 **** 0.06
1346 C 159.80449301860105 194.18767556162067 118.84411769521252 C 0.0 **** -0.24
1347 H 159.67710059421424 195.05672809415503 119.48951757219068 H 0.0 **** 0.06
1348 H 160.41469354471758 194.46088109594888 117.98265370431618 H 0.0 **** 0.06
1349 H 158.82848984015743 193.842980836744 118.5031302003889 H 0.0 **** 0.06
1350 H 160.29715534952317 193.39016981244578 119.40032498059306 H 0.0 **** 0.06
1351 C 39.70562109643224 210.8979481384073 34.42224760263082 C 0.0 **** -0.24
1352 H 39.14975331272598 209.96199658455515 34.3708294670156 H 0.0 **** 0.06
1353 H 39.51030539867392 211.48563301383504 33.523787004168526 H 0.0 **** 0.06
1354 H 40.77187036662724 210.6840769409214 34.4918373335895 H 0.0 **** 0.06
1355 H 39.38953881058127 211.46132671884445 35.30068525824737 H 0.0 **** 0.06
1356 C 22.259513525791064 91.48396908613704 191.13616942916462 C 0.0 **** -0.24
1357 H 23.203368323871842 90.94613054148216 191.22581851066508 H 0.0 **** 0.06
1358 H 21.43246903981253 90.79639190170106 191.31297771240503 H 0.0 **** 0.06
1359 H 22.17475925698095 91.9038005933313 190.13405748490968 H 0.0 **** 0.06
1360 H 22.228897349601183 92.28796664280567 191.87118419548247 H 0.0 **** 0.06
1361 C 157.76758471738134 181.4901794790108 140.0332355354028 C 0.0 **** -0.24
1362 H 157.73570521364644 182.29004561677573 140.77239653248301 H 0.0 **** 0.06
1363 H 158.4649076414748 181.75724969516244 139.2392409672068 H 0.0 **** 0.06
1364 H 156.77240650464938 181.34566173649807 139.61096535097477 H 0.0 **** 0.06
1365 H 158.0968044924868 180.5673271419941 140.51107865300617 H 0.0 **** 0.06
1366 C 155.54846178843349 8.927986263374919 47.78191474362592 C 0.0 **** -0.24
1367 H 154.6610107105796 8.553009480512912 47.272514973328896 H 0.0 **** 0.06
1368 H 156.43804350810228 8.63255135324846 47.22474265969963 H 0.0 **** 0.06
1369 H 155.59426700098038 8.510506438918753 48.78693692619187 H 0.0 **** 0.06
1370 H 155.5007850071525 10.014574381861621 47.84140671414163 H 0.0 **** 0.06
1371 C 13.039153046159697 102.94068929280938 181.23802752451923 C 0.0 **** -0.24
1372 H 13.43970882474514 103.34409897313704 180.30821096807932 H 0.0 **** 0.06
1373 H 13.645198112822897 102.0920599810541 181.55631641276298 H 0.0 **** 0.06
1374 H 12.011852381744575 102.61563318888743 181.07963252185996 H 0.0 **** 0.06
1375 H 13.061374188103684 103.7125877319332 182.00772107922094 H 0.0 **** 0.06
1376 C 165.08912145517007 108.28831887017809 198.32298958228452 C 0.0 **** -0.24
1377 H 164.689162853325 107.83450069866798 197.41653974272418 H 0.0 **** 0.06
1378 H 165.65674264173663 109.18167901845659 198.06139833416904 H 0.0 **** 0.06
1379 H 165.7424720455453 107.5770922752311 198.8281626913252 H 0.0 **** 0.06
1380 H 164.26692929285105 108.56100268169315 198.98507547866572 H 0.0 **** 0.06
1381 C 143.0413979909431 155.2458288564265 31.851586326472642 C 0.0 **** -0.24
1382 H 142.2677368416177 154.51217923209265 32.07536248806338 H 0.0 **** 0.06
1383 H 144.0065168020294 154.87304373713908 32.19641105404094 H 0.0 **** 0.06
1384 H 142.81144998226472 156.18189115218024 32.3606987222289 H 0.0 **** 0.06
1385 H 143.08048190661214 155.41713098539623 30.775818151818896 H 0.0 **** 0.06
1386 C 80.18994217707473 188.24167453842145 203.49769590723437 C 0.0 **** -0.24
1387 H 80.48440407704811 189.040456508021 202.81755645211047 H 0.0 **** 0.06
1388 H 79.2789419515002 188.5286050198431 204.02313632106757 H 0.0 **** 0.06
1389 H 80.98728237300861 188.06810701772105 204.22063647978908 H 0.0 **** 0.06
1390 H 80.00976343438572 187.3290107842385 202.93003965427067 H 0.0 **** 0.06
1391 C 216.5844587260682 204.3011948149435 203.8257156854271 C 0.0 **** -0.24
1392 H 217.54741697774907 203.82084173178222 203.99952724999437 H 0.0 **** 0.06
1393 H 216.4396684564135 204.44836416679584 202.75511673705347 H 0.0 **** 0.06
1394 H 216.5625862310119 205.26578670112386 204.3328066269429 H 0.0 **** 0.06
1395 H 215.78777498197798 203.6678200544846 204.2164029877565 H 0.0 **** 0.06
1396 C 127.02545501087347 154.23086896599716 9.681040907713893 C 0.0 **** -0.24
1397 H 126.23933773621134 154.6219237975742 10.326546815525333 H 0.0 **** 0.06
1398 H 126.68340401423511 154.23898683017347 8.646154270522047 H 0.0 **** 0.06
1399 H 127.26405184385403 153.20928176876834 9.977664059314733 H 0.0 **** 0.06
1400 H 127.9157310248598 154.8530966725137 9.77448310051102 H 0.0 **** 0.06
1401 C 95.83261840671776 180.8043774531929 88.07313053567793 C 0.0 **** -0.24
1402 H 96.75971621808134 180.66662596831978 88.63102151140174 H 0.0 **** 0.06
1403 H 96.0381720294015 180.73128811733307 87.00436403939892 H 0.0 **** 0.06
1404 H 95.41597113411774 181.78543379459114 88.29827852948011 H 0.0 **** 0.06
1405 H 95.11895488034173 180.03168900042974 88.36040927859455 H 0.0 **** 0.06
1406 C 177.07810455196625 206.6213132456357 102.08924725686332 C 0.0 **** -0.24
1407 H 176.92225702764085 207.48021909981082 102.74166921543228 H 0.0 **** 0.06
1408 H 178.10975974224272 206.28055387694735 102.1784815697534 H 0.0 **** 0.06
1409 H 176.87838460113437 206.9085172227414 101.05649270330092 H 0.0 **** 0.06
1410 H 176.40191647430694 205.8169664715796 102.37935429198406 H 0.0 **** 0.06
1411 C 72.9472588368564 36.52618769178707 159.9258537408693 C 0.0 **** -0.24
1412 H 72.17222766548497 35.79175427457821 160.14653764833727 H 0.0 **** 0.06
1413 H 73.38491326297014 36.310214853048365 158.9511222516782 H 0.0 **** 0.06
1414 H 73.72172039979728 36.47786598258216 160.69208572652298 H 0.0 **** 0.06
1415 H 72.50921036063943 37.52429103590822 159.91558800719207 H 0.0 **** 0.06
1416 C 192.01790223243086 76.05498826296878 148.67089254441788 C 0.0 **** -0.24
1417 H 192.2339589453727 75.31484355296237 147.9012319563334 H 0.0 **** 0.06
1418 H 191.82535494329625 77.02028659678592 148.2028980986102 H 0.0 **** 0.06
1419 H 192.87281727513226 76.14069642678948 149.34252677350577 H 0.0 **** 0.06
1420 H 191.14065475870404 75.74421376873016 149.23769251656807 H 0.0 **** 0.06
1421 C 46.18057829011261 75.1495717227293 102.0216185773411 C 0.0 **** -0.24
1422 H 46.156026212716895 75.96197811357199 101.2951743660635 H 0.0 **** 0.06
1423 H 46.78946685962315 75.4452505970312 102.87643251207662 H 0.0 **** 0.06
1424 H 46.61131733316168 74.26256841000755 101.55801516704115 H 0.0 **** 0.06
1425 H 45.16647055317199 74.92962646026898 102.35425006221787 H 0.0 **** 0.06
1426 C 107.41981694575433 119.88808813032286 50.31936805155743 C 0.0 **** -0.24
1427 H 107.99402285490622 120.05200552775214 49.40760394069241 H 0.0 **** 0.06
1428 H 106.8894996368311 120.8039183682851 50.58532050592095 H 0.0 **** 0.06
1429 H 108.09415050061678 119.6105209221078 51.1288152822321 H 0.0 **** 0.06
1430 H 106.6994072508463 119.08580685176823 50.156184786231734 H 0.0 **** 0.06
1431 C 182.24452023754424 6.795513831182973 59.381913116453916 C 0.0 **** -0.24
1432 H 182.63982897116534 7.80315800643865 59.51218347399606 H 0.0 **** 0.06
1433 H 181.67349357793967 6.747112719826902 58.45328452103479 H 0.0 **** 0.06
1434 H 181.5947638809336 6.549290316755389 60.221654024396514 H 0.0 **** 0.06
1435 H 183.0699140998479 6.084837939319527 59.33865936271013 H 0.0 **** 0.06
1436 C 73.62454748492614 166.49428077655944 107.14489971824405 C 0.0 **** -0.24
1437 H 74.4992319581388 166.81118005064758 106.57687941949864 H 0.0 **** 0.06
1438 H 73.52221462258821 165.41112733534294 107.07835841495422 H 0.0 **** 0.06
1439 H 72.73391069056639 166.97039727704146 106.7355437547668 H 0.0 **** 0.06
1440 H 73.74502427225961 166.78446744961178 108.18837619908435 H 0.0 **** 0.06
1441 C 131.39272622458623 45.65883139430552 140.61635967034567 C 0.0 **** -0.24
1442 H 131.19700666654592 45.621588353671754 139.54391574339633 H 0.0 **** 0.06
1443 H 131.62148910010256 44.655979190132015 140.9782728583973 H 0.0 **** 0.06
1444 H 130.51141277038084 46.03934445923538 141.13260625679231 H 0.0 **** 0.06
1445 H 132.23986716163677 46.317391721361275 140.80805908346076 H 0.0 **** 0.06
1446 C 192.23414899454175 76.69894864351227 118.64595964357262 C 0.0 **** -0.24
1447 H 192.21768736086983 77.76006206566495 118.40039614868114 H 0.0 **** 0.06
1448 H 192.6539186052612 76.56396648422503 119.6441056607723 H 0.0 **** 0.06
1449 H 192.84838603385506 76.16701475191093 117.91892639585161 H 0.0 **** 0.06
1450 H 191.21864415976864 76.30398019299082 118.6222112663893 H 0.0 **** 0.06
1451 C 16.067182926741765 58.314246763331084 214.10117454241177 C 0.0 **** -0.24
1452 H 15.216334869625129 57.64218788473856 213.99201606031596 H 0.0 **** 0.06
1453 H 15.771799166847856 59.18174728944746 214.6916094784185 H 0.0 **** 0.06
1454 H 16.400210464439027 58.6420524453049 213.11616782206397 H 0.0 **** 0.06
1455 H 16.88026680702977 57.79174868107572 214.60425354116666 H 0.0 **** 0.06
1456 C 142.77048086939743 132.68723035162867 143.23879441523565 C 0.0 **** -0.24
1457 H 143.5159140355836 133.06292925344383 142.53796571681573 H 0.0 **** 0.06
1458 H 142.92414129129207 131.61965200040316 143.3961414051671 H 0.0 **** 0.06
1459 H 141.77306587914677 132.85434196082883 142.8318863323325 H 0.0 **** 0.06
1460 H 142.86838163399966 133.21290383442278 144.18923798855252 H 0.0 **** 0.06
1461 C 138.69901636194095 206.4954741129764 202.6865269361518 C 0.0 **** -0.24
1462 H 138.80156570200063 205.64709784866335 203.3634600867316 H 0.0 **** 0.06
1463 H 137.81240159609513 207.06937859586372 202.9559597426404 H 0.0 **** 0.06
1464 H 138.60206859590494 206.1334245486345 201.6628275730634 H 0.0 **** 0.06
1465 H 139.5814830804718 207.13059825125293 202.76482737685512 H 0.0 **** 0.06
1466 C 112.7519683205892 149.02945304649273 146.84948547514568 C 0.0 **** -0.24
1467 H 113.77004620500124 149.2132923839182 146.50615668692296 H 0.0 **** 0.06
1468 H 112.07685678131277 149.7501543188377 146.38734779724786 H 0.0 **** 0.06
1469 H 112.7107066703911 149.13507285928193 147.93416934152026 H 0.0 **** 0.06
1470 H 112.45195773185971 148.01942978600653 146.57132223736335 H 0.0 **** 0.06
1471 C 61.738874039461905 23.846000073073697 73.80417151793108 C 0.0 **** -0.24
1472 H 61.74897488563431 22.893573594999282 73.27402539060131 H 0.0 **** 0.06
1473 H 62.04120904474348 24.642965038961506 73.1254775450376 H 0.0 **** 0.06
1474 H 62.431541398288005 23.801511050995217 74.64489965584164 H 0.0 **** 0.06
1475 H 60.73201595853021 24.044528094844935 74.17323057522003 H 0.0 **** 0.06
1476 C 39.166474802736786 6.59494453874089 35.34555141748724 C 0.0 **** -0.24
1477 H 38.51458400084286 5.736900508038474 35.5078965781791 H 0.0 **** 0.06
1478 H 38.77602416763233 7.198149601012318 34.52558001522614 H 0.0 **** 0.06
1479 H 40.16972296171883 6.247185669536464 35.09600970881826 H 0.0 **** 0.06
1480 H 39.206772292155165 7.1978280255742675 36.253403701951285 H 0.0 **** 0.06
1481 C 184.66574118400814 41.98274766924901 127.0835932455451 C 0.0 **** -0.24
1482 H 184.1442286069493 42.92966206327709 126.94293797845938 H 0.0 **** 0.06
1483 H 184.71958037656555 41.453657910144045 126.13275914604293 H 0.0 **** 0.06
1484 H 184.12525791537334 41.373921613279464 127.80897233346883 H 0.0 **** 0.06
1485 H 185.673976293671 42.174921891898265 127.45048991779487 H 0.0 **** 0.06
1486 C 201.3475009080472 124.34230352903408 105.21066387863881 C 0.0 **** -0.24
1487 H 201.1877906914118 123.63956310927686 106.02975222693924 H 0.0 **** 0.06
1488 H 201.96797578672644 125.16832842144107 105.55717784146891 H 0.0 **** 0.06
1489 H 200.3862681301329 124.72694104818966 104.87026461774055 H 0.0 **** 0.06
1490 H 201.84761744734328 123.83177335562836 104.38771337941317 H 0.0 **** 0.06
1491 C 166.15479354373616 40.5305357387725 11.06858480457879 C 0.0 **** -0.24
1492 H 167.0068863363387 39.897622971990515 11.314349775866049 H 0.0 **** 0.06
1493 H 165.24034295010233 39.93812859627644 11.107133932969106 H 0.0 **** 0.06
1494 H 166.28269917315004 40.939175273670386 10.066269477396645 H 0.0 **** 0.06
1495 H 166.08954480553064 41.34657412622785 11.787810136552736 H 0.0 **** 0.06
1496 C 18.785574964698583 179.34534854202263 12.675020915070448 C 0.0 **** -0.24
1497 H 19.133795282330723 179.66016125438114 11.690971773205746 H 0.0 **** 0.06
1498 H 18.598791939640222 180.22509236941792 13.292363662391566 H 0.0 **** 0.06
1499 H 19.545711920494313 178.72417570272796 13.14753464926082 H 0.0 **** 0.06
1500 H 17.86339223455981 178.77406422845598 12.568107941530855 H 0.0 **** 0.06
1501 C 181.7267387571075 63.18888152256456 183.65237008863147 C 0.0 **** -0.24
1502 H 182.62527220856214 62.69426144554812 183.28329319307068 H 0.0 **** 0.06
1503 H 181.89639905572997 64.26519923244736 183.69592149192601 H 0.0 **** 0.06
1504 H 181.4910322811524 62.81681115097034 184.64958783722375 H 0.0 **** 0.06
1505 H 180.89444485808264 62.97901857863957 182.97929685668788 H 0.0 **** 0.06
1506 C 85.64055152798527 91.69018839360017 150.5509828352611 C 0.0 **** -0.24
1507 H 86.38401542791736 91.46419303543028 151.31497475535411 H 0.0 **** 0.06
1508 H 85.60857800117721 92.76619137787976 150.382091168923 H 0.0 **** 0.06
1509 H 84.66111292624014 91.34523225847376 150.88346808219768 H 0.0 **** 0.06
1510 H 85.90853358751183 91.1834222464875 149.623639946759 H 0.0 **** 0.06
1511 C 43.86247789114665 115.50542673628003 30.292657786298832 C 0.0 **** -0.24
1512 H 44.944232467113196 115.63779508895787 30.284244233735237 H 0.0 **** 0.06
1513 H 43.52171466495686 115.36781298676546 31.319194209755196 H 0.0 **** 0.06
1514 H 43.59909083101452 114.62906806985414 29.700327740468595 H 0.0 **** 0.06
1515 H 43.38541224542773 116.38867264879111 29.866745610435984 H 0.0 **** 0.06
1516 C 149.11203078894954 49.84668046720992 114.92738556985817 C 0.0 **** -0.24
1517 H 148.3825827916578 49.35452128514737 115.56963635682793 H 0.0 **** 0.06
1518 H 148.60277428465486 50.28290004834679 114.06744054601661 H 0.0 **** 0.06
1519 H 149.84462110472867 49.11614686562888 114.5837488011487 H 0.0 **** 0.06
1520 H 149.6181040940379 50.63256190530211 115.48791149122421 H 0.0 **** 0.06
1521 C 9.607069398457057 33.32601027715826 28.384390591043868 C 0.0 **** -0.24
1522 H 8.84575086775348 33.61312463313419 29.108736195420917 H 0.0 **** 0.06
1523 H 10.593968935235168 33.57008107538434 28.778844522350624 H 0.0 **** 0.06
1524 H 9.44454357396397 33.86667897101627 27.4523971126617 H 0.0 **** 0.06
1525 H 9.545023654502756 32.25321372386239 28.197888468625337 H 0.0 **** 0.06
1526 C 126.4141629799769 124.21119117771427 106.694831405186 C 0.0 **** -0.24
1527 H 127.4632798353994 124.35868288051707 106.95109329736897 H 0.0 **** 0.06
1528 H 126.3308693977976 123.42584122908302 105.94222472944949 H 0.0 **** 0.06
1529 H 126.00254088114688 125.1398150171568 106.29835673526418 H 0.0 **** 0.06
1530 H 125.85990272315532 123.91905830789487 107.58729434927079 H 0.0 **** 0.06
1531 C 40.20259294548515 207.29666962384252 38.696932470058925 C 0.0 **** -0.24
1532 H 39.83645740454176 207.29459231286683 37.67117101843628 H 0.0 **** 0.06
1533 H 40.25979563359698 206.27206183665686 39.063860072242605 H 0.0 **** 0.06
1534 H 39.52217905099036 207.87000957667212 39.32549618585439 H 0.0 **** 0.06
1535 H 41.194063697758395 207.74937148572081 38.727476235075486 H 0.0 **** 0.06
1536 C 169.9753776024765 197.1060248515594 8.240521494712041 C 0.0 **** -0.24
1537 H 171.01370664161496 196.77807884952347 8.191192365342815 H 0.0 **** 0.06
1538 H 169.93940822669785 198.19502505723932 8.259199920017835 H 0.0 **** 0.06
1539 H 169.51251130706447 196.71074595395888 9.14504431457921 H 0.0 **** 0.06
1540 H 169.43762932700884 196.73887943006542 7.366370953635467 H 0.0 **** 0.06
1541 C 62.59693499188144 0.2681713267654118 3.441681467587884 C 0.0 **** -0.24
1542 H 63.1690410769652 -0.051530982048404894 2.570574010445597 H 0.0 **** 0.06
1543 H 62.267196746226944 -0.6082198648136341 4.000995628927953 H 0.0 **** 0.06
1544 H 61.72733333599221 0.8385642069310961 3.1162662744341887 H 0.0 **** 0.06
1545 H 63.22356193956219 0.8920378468648096 4.078372409635989 H 0.0 **** 0.06
1546 C 71.98418170748856 77.22286048265552 207.34601523496426 C 0.0 **** -0.24
1547 H 72.9630992143209 76.98731340839332 207.76222216478567 H 0.0 **** 0.06
1548 H 71.36079181114881 77.677072677472 208.1163433856402 H 0.0 **** 0.06
1549 H 71.51107395019598 76.30770355125786 206.98951280406487 H 0.0 **** 0.06
1550 H 72.0998508433732 77.91876871034212 206.5149788161075 H 0.0 **** 0.06
1551 C 25.439505437175967 67.84192567238165 206.32269209668837 C 0.0 **** -0.24
1552 H 25.719069107287226 67.69554555754559 205.2794370221019 H 0.0 **** 0.06
1553 H 26.336162798691134 68.01216597848025 206.91872058004853 H 0.0 **** 0.06
1554 H 24.923626513274428 66.95287416696806 206.68737485961046 H 0.0 **** 0.06
1555 H 24.77775776507258 68.70455077662751 206.40367414974043 H 0.0 **** 0.06
1556 C 99.22421514149124 133.79186974672342 136.01694695353126 C 0.0 **** -0.24
1557 H 98.37724134539184 134.31158412891057 136.4636520775972 H 0.0 **** 0.06
1558 H 99.63315499374727 134.39557990075792 135.20580737863696 H 0.0 **** 0.06
1559 H 98.89365170725921 132.8313103978291 135.62351123230422 H 0.0 **** 0.06
1560 H 99.99202654681062 133.63039799086937 136.7732548579076 H 0.0 **** 0.06
1561 C 138.50951763819108 92.71424059991051 182.66644781738083 C 0.0 **** -0.24
1562 H 137.76383397353186 92.94805732474549 183.42714537204924 H 0.0 **** 0.06
1563 H 139.01738223267392 91.78640415876788 182.9294121236197 H 0.0 **** 0.06
1564 H 139.23643058844664 93.52441934510637 182.6103309971782 H 0.0 **** 0.06
1565 H 138.01852010762173 92.59912626242902 181.7000362829041 H 0.0 **** 0.06
1566 C 163.0355887921363 206.40165717154548 105.14947383636213 C 0.0 **** -0.24
1567 H 163.16988314562786 206.26828713087372 106.22284124446672 H 0.0 **** 0.06
1568 H 162.62660907671983 205.48727098780535 104.7187632036043 H 0.0 **** 0.06
1569 H 163.99828076128077 206.62121665382267 104.68786475682064 H 0.0 **** 0.06
1570 H 162.34929874006488 207.22783064563066 104.96940591625234 H 0.0 **** 0.06
1571 C 150.0286745567102 24.180616648333967 75.67562838948096 C 0.0 **** -0.24
1572 H 150.8849244605288 24.054593278000198 75.01455024390732 H 0.0 **** 0.06
1573 H 149.29840488636955 23.395213833549633 75.47811691707965 H 0.0 **** 0.06
1574 H 149.57223564270623 25.15391184827331 75.49862813804135 H 0.0 **** 0.06
1575 H 150.3580265746184 24.11704844153303 76.71342918562588 H 0.0 **** 0.06
1576 C 5.480427451619896 73.20023165179288 63.08773258000619 C 0.0 **** -0.24
1577 H 6.230235322655616 73.91519862573455 62.750973768354584 H 0.0 **** 0.06
1578 H 4.59543359068266 73.73612432761621 63.4314709257971 H 0.0 **** 0.06
1579 H 5.8864374394457855 72.6056971347943 63.90665000487735 H 0.0 **** 0.06
1580 H 5.209814846644015 72.54255958140465 62.261459980260724 H 0.0 **** 0.06
1581 C 23.720317408058293 121.03075854985327 141.7498337181396 C 0.0 **** -0.24
1582 H 23.45155326956052 122.00082618976488 141.33268418312826 H 0.0 **** 0.06
1583 H 22.822071141478347 120.52534187167184 142.1039435253967 H 0.0 **** 0.06
1584 H 24.410309114982056 121.17243992614966 142.5826626302491 H 0.0 **** 0.06
1585 H 24.19921102658128 120.42546709364113 140.9812283160078 H 0.0 **** 0.06
1586 C 117.17660406206078 176.8379272763775 51.16020110772344 C 0.0 **** -0.24
1587 H 116.89145690137126 177.85141256517466 50.87524176105282 H 0.0 **** 0.06
1588 H 117.58232841541927 176.31815912593962 50.29219018761023 H 0.0 **** 0.06
1589 H 116.30130504215741 176.30472868829557 51.529565436469994 H 0.0 **** 0.06
1590 H 117.93329077229099 176.88154812252856 51.94373642035001 H 0.0 **** 0.06
1591 C 112.10732340489942 60.037409560269765 94.76127229037449 C 0.0 **** -0.24
1592 H 111.70051656416742 59.24027757862581 95.383281076335 H 0.0 **** 0.06
1593 H 111.99345325005267 59.771705550006004 93.71039641755179 H 0.0 **** 0.06
1594 H 113.16409664029878 60.17297828941176 94.98987363222936 H 0.0 **** 0.06
1595 H 111.57041919805427 60.96508708884508 94.9626238093688 H 0.0 **** 0.06
1596 C 137.05942194743994 98.4821435012632 44.945579988575304 C 0.0 **** -0.24
1597 H 136.39423299977142 97.70003074219339 44.58049448921706 H 0.0 **** 0.06
1598 H 137.22894265481688 99.21413583285455 44.155372985475964 H 0.0 **** 0.06
1599 H 138.01140791557748 98.03934138751988 45.24119657970485 H 0.0 **** 0.06
1600 H 136.6048343340599 98.97384495361861 45.80597404380214 H 0.0 **** 0.06
1601 C 81.26159267128276 71.40830355165438 112.20845110221809 C 0.0 **** -0.24
1602 H 81.29687187603156 71.77745232864298 113.23357046093282 H 0.0 **** 0.06
1603 H 80.31038196860663 71.68629444283472 111.75511194481935 H 0.0 **** 0.06
1604 H 81.36140841253439 70.32326242062909 112.20974898049339 H 0.0 **** 0.06
1605 H 82.07972984250586 71.84715160759411 111.6363819559525 H 0.0 **** 0.06
1606 C 160.58671952723844 153.16381724016463 18.694865906956238 C 0.0 **** -0.24
1607 H 161.31074096546072 152.84169046330993 19.4426582694596 H 0.0 **** 0.06
1608 H 160.9796030484356 152.95909187576927 17.698007224535402 H 0.0 **** 0.06
1609 H 160.40559610237156 154.23318870445803 18.801580980827694 H 0.0 **** 0.06
1610 H 159.65252490891945 152.6207394929832 18.836135521297237 H 0.0 **** 0.06
1611 C 50.74322028207318 198.73289714961817 187.3372417916128 C 0.0 **** -0.24
1612 H 50.13164156757939 199.32456447554435 188.01758756315962 H 0.0 **** 0.06
1613 H 51.59986783053269 199.32384295036445 187.01282203500222 H 0.0 **** 0.06
1614 H 50.14734365574682 198.44765806034755 186.469516105447 H 0.0 **** 0.06
1615 H 51.09231508385216 197.83576170501448 187.84894772069546 H 0.0 **** 0.06
1616 C 144.522021853841 54.90459226598142 194.58685766082613 C 0.0 **** -0.24
1617 H 144.09265320521632 54.816347462165 193.5885307771455 H 0.0 **** 0.06
1618 H 144.02202342731147 54.20757501725282 195.259299229679 H 0.0 **** 0.06
1619 H 144.38661213324212 55.92266406508588 194.95191129462253 H 0.0 **** 0.06
1620 H 145.58621728265985 54.67153909341624 194.5457912312014 H 0.0 **** 0.06
1621 C 83.0385330372407 191.61767783536487 90.71357367997285 C 0.0 **** -0.24
1622 H 82.14411943510454 192.15005561281845 90.39080543771195 H 0.0 **** 0.06
1623 H 83.33487201078118 191.96918055425874 91.70168004147286 H 0.0 **** 0.06
1624 H 83.84618328232698 191.802189349239 90.00460419232678 H 0.0 **** 0.06
1625 H 82.82884467137244 190.54875570381415 90.75527986611587 H 0.0 **** 0.06
1626 C 143.33324889710906 136.1676924956614 125.4619903091186 C 0.0 **** -0.24
1627 H 142.82369486615636 136.16743931556687 126.42504053901239 H 0.0 **** 0.06
1628 H 142.61275710610596 135.96381600108708 124.67042535521081 H 0.0 **** 0.06
1629 H 144.1038812024819 135.3965826319207 125.45962997257386 H 0.0 **** 0.06
1630 H 143.79258049777218 137.1418940411387 125.29424953415499 H 0.0 **** 0.06
1631 C 96.47460001308009 211.7287567578847 37.04393749551309 C 0.0 **** -0.24
1632 H 95.69422165642261 212.48029249543237 36.91908232321458 H 0.0 **** 0.06
1633 H 97.2968998991003 212.15182688636284 37.62018109467988 H 0.0 **** 0.06
1634 H 96.83724525418502 211.41600153451222 36.06513530722782 H 0.0 **** 0.06
1635 H 96.06578061985086 210.86640910272598 37.57216887557394 H 0.0 **** 0.06
1636 C 198.03635444049988 174.42493570685212 136.77856441192353 C 0.0 **** -0.24
1637 H 198.61528560276452 173.5560806808419 137.08868012946408 H 0.0 **** 0.06
1638 H 198.62687067153763 175.02751849222193 136.0882741049229 H 0.0 **** 0.06
1639 H 197.7782660174271 175.02053356879554 137.65372135491782 H 0.0 **** 0.06
1640 H 197.12335733078675 174.09370621848194 136.28194134459278 H 0.0 **** 0.06
1641 C 159.5453623410979 48.767092114246964 0.6898544340081116 C 0.0 **** -0.24
1642 H 158.54426437118255 49.12736490036957 0.9295136365734464 H 0.0 **** 0.06
1643 H 160.0734189736724 48.521983044802724 1.6118755235220732 H 0.0 **** 0.06
1644 H 160.0913508980967 49.54250556157882 0.15283338023175475 H 0.0 **** 0.06
1645 H 159.47084284809597 47.8761319890652 0.0658127296067974 H 0.0 **** 0.06
1646 C 32.350725026957605 186.29826109183853 10.631402685491224 C 0.0 **** -0.24
1647 H 33.32025538686918 186.57029793303232 10.21651361428411 H 0.0 **** 0.06
1648 H 31.69153330775748 187.16663170491398 10.614027245466005 H 0.0 **** 0.06
1649 H 32.47707576728507 185.9583583374976 11.659681226270834 H 0.0 **** 0.06
1650 H 31.912915572928767 185.49695936970932 10.035056652921966 H 0.0 **** 0.06
1651 C 205.59595478071034 175.48049136203142 85.0692746996661 C 0.0 **** -0.24
1652 H 206.41632135634114 175.7701188483262 84.41167318039004 H 0.0 **** 0.06
1653 H 205.315666879389 174.44660907729016 84.8666339888029 H 0.0 **** 0.06
1654 H 204.73922582167393 176.13105239021257 84.88888621883927 H 0.0 **** 0.06
1655 H 205.91220632698457 175.57583096119586 86.10742904082531 H 0.0 **** 0.06
1656 C 14.919888478300393 10.644602175391725 145.587969887248 C 0.0 **** -0.24
1657 H 15.813974096514883 10.404013781318227 146.16461041403755 H 0.0 **** 0.06
1658 H 14.121145206497928 9.950795976898107 145.85098374364952 H 0.0 **** 0.06
1659 H 15.139861265795787 10.558921309435064 144.52422044076303 H 0.0 **** 0.06
1660 H 14.605451080361803 11.663049480718058 145.8133214462557 H 0.0 **** 0.06
1661 C 134.55066981099964 5.64053493175615 130.3859405729067 C 0.0 **** -0.24
1662 H 135.249731558721 4.954162117787547 130.86402442970268 H 0.0 **** 0.06
1663 H 135.10478134427012 6.441773660818626 129.89793746983622 H 0.0 **** 0.06
1664 H 133.8859582415016 6.063696369890295 131.13886756690448 H 0.0 **** 0.06
1665 H 133.96191367732393 5.100090243167244 129.64468495470783 H 0.0 **** 0.06
1666 C 5.406076241649146 180.816006148598 199.85171766415218 C 0.0 **** -0.24
1667 H 5.28021828113296 181.8952351995913 199.94504282674183 H 0.0 **** 0.06
1668 H 4.899572017346472 180.46820765279938 198.95116682132408 H 0.0 **** 0.06
1669 H 4.976474670121547 180.32361674394684 200.72468118973032 H 0.0 **** 0.06
1670 H 6.467729780757793 180.5790213877425 199.78680147047896 H 0.0 **** 0.06
1671 C 98.61843946766221 155.58529961759012 12.041165894765669 C 0.0 **** -0.24
1672 H 98.0215994788994 155.1194745224201 12.826008658382293 H 0.0 **** 0.06
1673 H 98.66533709016151 154.92135296954564 11.177741546374108 H 0.0 **** 0.06
1674 H 99.62595437954552 155.77062424901396 12.412496753551906 H 0.0 **** 0.06
1675 H 98.15916567118354 156.52979210632674 11.748738703499384 H 0.0 **** 0.06
1676 C 111.25436384234406 31.639323330709374 81.99092242580234 C 0.0 **** -0.24
1677 H 110.72438040115667 30.71522640964855 82.22431392021853 H 0.0 **** 0.06
1678 H 110.53235824052207 32.42890930872056 81.78059875690035 H 0.0 **** 0.06
1679 H 111.88757125535624 31.483895205790247 81.1176947356506 H 0.0 **** 0.06
1680 H 111.8719895111294 31.928166158046253 82.84040253974986 H 0.0 **** 0.06
1681 C 197.98345247476814 20.09501104207071 181.03592651692585 C 0.0 **** -0.24
1682 H 197.0913181651002 19.48168372255836 181.1647796079007 H 0.0 **** 0.06
1683 H 198.43156431078935 20.292470191058086 182.01034112246387 H 0.0 **** 0.06
1684 H 197.7111319462833 21.03829340933433 180.56281127035373 H 0.0 **** 0.06
1685 H 198.69949932502635 19.565434977593824 180.40757372182455 H 0.0 **** 0.06
1686 C 148.36114216944304 207.125258088047 93.98714330712033 C 0.0 **** -0.24
1687 H 147.9537468218233 207.09672388618864 92.97614826253579 H 0.0 **** 0.06
1688 H 148.13532989246175 208.08971698676083 94.44240915321814 H 0.0 **** 0.06
1689 H 149.44189818751335 206.98598181524284 93.94644069534581 H 0.0 **** 0.06
1690 H 147.91381666634578 206.32911255374322 94.58118816881165 H 0.0 **** 0.06
1691 C 199.2784943967511 62.95272766954464 197.3183184891849 C 0.0 **** -0.24
1692 H 200.18950748626088 62.58713443302071 197.79154661959916 H 0.0 **** 0.06
1693 H 198.81130935235785 63.69930984433728 197.96003518378689 H 0.0 **** 0.06
1694 H 198.58964722261172 62.12174543098979 197.16482505278964 H 0.0 **** 0.06
1695 H 199.5242965286875 63.40244587224193 196.35572199722705 H 0.0 **** 0.06
1696 C 141.80949768782995 162.88173943099247 131.07610792818286 C 0.0 **** -0.24
1697 H 140.9701008541859 162.69531674052214 131.74678198498106 H 0.0 **** 0.06
1698 H 142.65313983379417 163.26587337289658 131.64897804451863 H 0.0 **** 0.06
1699 H 141.51718450529654 163.61292948898893 130.3224049097858 H 0.0 **** 0.06
1700 H 142.09694625227667 161.950540591584 130.5868480806464 H 0.0 **** 0.06
1701 C 147.71569846781773 131.5161714304998 119.5652934105443 C 0.0 **** -0.24
1702 H 147.0476748604571 131.92314712537996 118.80723315306678 H 0.0 **** 0.06
1703 H 147.40562251274406 131.86749517224263 120.54985761945362 H 0.0 **** 0.06
1704 H 148.73582076710807 131.84539887605558 119.3653310743842 H 0.0 **** 0.06
1705 H 147.674437575021 130.42716176727026 119.53828168376323 H 0.0 **** 0.06
1706 C 4.901735084533527 12.303050748934794 131.84325513166374 C 0.0 **** -0.24
1707 H 3.824032711679905 12.154597306442838 131.91920463497615 H 0.0 **** 0.06
1708 H 5.417113249464649 11.488277504481516 132.35118035546685 H 0.0 **** 0.06
1709 H 5.171496413410637 13.250230421744988 132.3089434471799 H 0.0 **** 0.06
1710 H 5.192195585105424 12.318646949387016 130.79307820262466 H 0.0 **** 0.06
1711 C 71.91913504163756 184.73473668907533 212.4074069735023 C 0.0 **** -0.24
1712 H 72.48385310430018 184.71738411439247 213.33996772093118 H 0.0 **** 0.06
1713 H 71.31071418587157 183.83278316061245 212.33519862833157 H 0.0 **** 0.06
1714 H 72.6102132944527 184.77537187308226 211.56484849800074 H 0.0 **** 0.06
1715 H 71.27245827887407 185.6115899087292 212.39071208082214 H 0.0 **** 0.06
1716 C 82.99084861313638 29.910932180918252 99.58246656809308 C 0.0 **** -0.24
1717 H 83.41831451396878 29.352803230259426 100.41554226526915 H 0.0 **** 0.06
1718 H 83.72131353464424 30.632595341830466 99.21497719449565 H 0.0 **** 0.06
1719 H 82.09762306246104 30.43699871643453 99.91896507902385 H 0.0 **** 0.06
1720 H 82.7261433414714 29.22133143514864 98.78038173358368 H 0.0 **** 0.06
1721 C 134.14006419610774 99.29071263043829 122.31675286068865 C 0.0 **** -0.24
1722 H 135.07122864845348 99.84981101536818 122.21685830964451 H 0.0 **** 0.06
1723 H 134.01994350243734 98.62983996412657 121.45734405068295 H 0.0 **** 0.06
1724 H 133.30193889540777 99.98596492766836 122.36100616402625 H 0.0 **** 0.06
1725 H 134.16957264767683 98.69758060523276 123.23007359683494 H 0.0 **** 0.06
1726 C 113.91654974758619 19.7347723965093 11.135510584683402 C 0.0 **** -0.24
1727 H 114.13914905838833 18.700687423356158 10.870890167082123 H 0.0 **** 0.06
1728 H 113.78544046654959 20.321194446789434 10.225390431072128 H 0.0 **** 0.06
1729 H 114.74081212103057 20.145700258984334 11.717905602895044 H 0.0 **** 0.06
1730 H 113.0011044367168 19.769233170023767 11.725075214491724 H 0.0 **** 0.06
1731 C 172.22179805917952 119.80463545473746 179.50030335896554 C 0.0 **** -0.24
1732 H 173.07612372693117 120.478613691049 179.4408801362883 H 0.0 **** 0.06
1733 H 171.7741761492556 119.69898626782451 178.51118757110243 H 0.0 **** 0.06
1734 H 171.48447270248715 120.21389334282621 180.1911213093787 H 0.0 **** 0.06
1735 H 172.552690381381 118.82979041285292 179.85592467606926 H 0.0 **** 0.06
1736 C 71.43574815181539 83.17842232390586 98.98266894598252 C 0.0 **** -0.24
1737 H 72.14812138689415 82.7564715226323 98.2743335610261 H 0.0 **** 0.06
1738 H 71.93254138247379 83.35254460166942 99.93748624097132 H 0.0 **** 0.06
1739 H 70.61025270290112 82.4806435209191 99.12514403730331 H 0.0 **** 0.06
1740 H 71.05193011250067 84.1218826462325 98.59431926845168 H 0.0 **** 0.06
1741 C 136.00906631637326 74.2417892127097 15.940235516855012 C 0.0 **** -0.24
1742 H 137.09121440639223 74.15576820142707 15.848928281919711 H 0.0 **** 0.06
1743 H 135.61089598264755 74.7622943633047 15.068520006265317 H 0.0 **** 0.06
1744 H 135.76431934312473 74.80213555928583 16.842186743810146 H 0.0 **** 0.06
1745 H 135.5697681948659 73.24598576306221 16.00108607388063 H 0.0 **** 0.06
1746 C 121.58458393094789 150.87060963148957 197.35455089265793 C 0.0 **** -0.24
1747 H 120.6842743595562 151.11937387829465 197.91490893328188 H 0.0 **** 0.06
1748 H 122.46105508962178 151.21820020483568 197.90232845205747 H 0.0 **** 0.06
1749 H 121.54984383665813 151.35462816966066 196.3782981974998 H 0.0 **** 0.06
1750 H 121.64442066281732 149.7897338325364 197.22226245418503 H 0.0 **** 0.06
1751 C 30.011047877397942 54.94016113389914 58.68455106357965 C 0.0 **** -0.24
1752 H 29.948764920728195 54.2413329817803 57.8506672735374 H 0.0 **** 0.06
1753 H 30.3517475733737 55.91003422798859 58.32113388313451 H 0.0 **** 0.06
1754 H 30.7174705033909 54.56096367681674 59.42390045440641 H 0.0 **** 0.06
1755 H 29.027762267159005 55.04720139943538 59.14309324792168 H 0.0 **** 0.06
1756 C 32.44329130176766 27.78358250089066 98.9444267833432 C 0.0 **** -0.24
1757 H 33.24906241079702 27.853944397425522 98.21347653409765 H 0.0 **** 0.06
1758 H 31.632180283394632 28.452894521766908 98.65640163910399 H 0.0 **** 0.06
1759 H 32.818494199431484 28.068346319155125 99.92748806984235 H 0.0 **** 0.06
1760 H 32.07416312639202 26.758642918052644 98.97854972669643 H 0.0 **** 0.06
1761 C 121.63663947592879 4.842570918685652 82.62597245275651 C 0.0 **** -0.24
1762 H 120.77105523772362 5.500268603580196 82.55722078478067 H 0.0 **** 0.06
1763 H 121.33131875938808 3.880411761016802 83.03688138085334 H 0.0 **** 0.06
1764 H 122.38527886037197 5.294487001802821 83.27608632706603 H 0.0 **** 0.06
1765 H 122.06041699477343 4.695142838026186 81.63205408047838 H 0.0 **** 0.06
1766 C 9.661837312557225 87.55199820994034 80.12253892843113 C 0.0 **** -0.24
1767 H 8.933075246640243 88.35816727769623 80.20697483689018 H 0.0 **** 0.06
1768 H 9.351693360336384 86.714331993423 80.74754227406835 H 0.0 **** 0.06
1769 H 10.637654092904313 87.9099347754726 80.45147687132537 H 0.0 **** 0.06
1770 H 9.725320970148289 87.22691642966294 79.08412581389233 H 0.0 **** 0.06
1771 C 29.902235516621303 110.83148461879712 67.83210049967512 C 0.0 **** -0.24
1772 H 29.658210166741725 110.75886125729282 68.89265820112708 H 0.0 **** 0.06
1773 H 29.47449952524225 109.97964978213612 67.30277500374778 H 0.0 **** 0.06
1774 H 30.985034265560202 110.83146786896278 67.70748908920221 H 0.0 **** 0.06
1775 H 29.49018306083549 111.75558924733606 67.42767803183598 H 0.0 **** 0.06
1776 C 134.36126323695618 171.34420661765427 183.29712511619317 C 0.0 **** -0.24
1777 H 133.98264853078427 172.3587926623422 183.41927744434778 H 0.0 **** 0.06
1778 H 134.72688037206433 171.21289068860762 182.27824662013575 H 0.0 **** 0.06
1779 H 133.55981728650642 170.63173482122713 183.49040845923162 H 0.0 **** 0.06
1780 H 135.17704140021488 171.1737583908254 184.00025777879188 H 0.0 **** 0.06
1781 C 124.518135621935 72.606312483706 36.1989434239982 C 0.0 **** -0.24
1782 H 125.08801070650192 72.89775848983635 37.081199480753156 H 0.0 **** 0.06
1783 H 124.17919022698398 71.57488603125768 36.30947702622507 H 0.0 **** 0.06
1784 H 125.15041764686795 72.68761789931233 35.315102941844884 H 0.0 **** 0.06
1785 H 123.65519390012322 73.26296706732398 36.09091347630812 H 0.0 **** 0.06
1786 C 206.04667810549526 23.799735695001743 90.02343702937488 C 0.0 **** -0.24
1787 H 206.19524105115374 22.724372398430987 90.130637775008 H 0.0 **** 0.06
1788 H 206.78184216509632 24.32964219109239 90.62841556895934 H 0.0 **** 0.06
1789 H 205.04300652719854 24.06169024150111 90.35831359683063 H 0.0 **** 0.06
1790 H 206.1658423117621 24.079890254233078 88.97681032813647 H 0.0 **** 0.06
1791 C 198.76900316143738 67.86613307910667 23.898395463821103 C 0.0 **** -0.24
1792 H 198.94639325114895 68.69400744930228 24.585887968077543 H 0.0 **** 0.06
1793 H 199.69309058906362 67.30386582000932 23.76213798197277 H 0.0 **** 0.06
1794 H 198.43590889658174 68.25849195436643 22.93793419537019 H 0.0 **** 0.06
1795 H 198.00138539623597 67.21099555461659 24.309948525277406 H 0.0 **** 0.06
1796 C 198.46879041523977 92.9980010089924 166.43539920514507 C 0.0 **** -0.24
1797 H 197.8446666831203 92.10947570738257 166.52758641660938 H 0.0 **** 0.06
1798 H 198.83217401846176 93.08219181874769 165.41109534151434 H 0.0 **** 0.06
1799 H 199.3166411547705 92.91774432535924 167.116849241004 H 0.0 **** 0.06
1800 H 197.883249490067 93.88152315168033 166.6866929771142 H 0.0 **** 0.06
1801 C 126.86563167739335 185.4374061299423 214.79259024378285 C 0.0 **** -0.24
1802 H 127.46695419848605 184.69438881278938 214.2693258574888 H 0.0 **** 0.06
1803 H 127.13049343139214 186.4339411082978 214.43697324212087 H 0.0 **** 0.06
1804 H 127.05804012482734 185.37137663278736 215.86310891221683 H 0.0 **** 0.06
1805 H 125.80886315666068 185.25120443920986 214.60082120985274 H 0.0 **** 0.06
1806 C 161.90884597174744 55.57626231181888 131.6474358697908 C 0.0 **** -0.24
1807 H 162.74292538453722 56.23809760269802 131.41563702072727 H 0.0 **** 0.06
1808 H 161.78281792163443 54.85503204537497 130.83872887511234 H 0.0 **** 0.06
1809 H 160.9969558439934 56.16365105303544 131.75538956497115 H 0.0 **** 0.06
1810 H 162.1132388764424 55.047641750368825 132.57768581114993 H 0.0 **** 0.06
1811 C 80.28578271985333 148.11634743327681 191.51566745524238 C 0.0 **** -0.24
1812 H 80.44350128288107 148.7838274045945 192.363703718796 H 0.0 **** 0.06
1813 H 79.78374763489211 148.66060957860122 190.71504541779353 H 0.0 **** 0.06
1814 H 79.66764155419895 147.27389193830692 191.82652655691348 H 0.0 **** 0.06
1815 H 81.24793703837003 147.7496577786265 191.1588651414141 H 0.0 **** 0.06
1816 C 192.2775719920374 150.66251268037678 54.20905192736254 C 0.0 **** -0.24
1817 H 191.56978468545074 151.42793695051824 54.52522898216745 H 0.0 **** 0.06
1818 H 191.77226402963177 149.69739196375156 54.16410735936694 H 0.0 **** 0.06
1819 H 193.0996247479556 150.60993583097644 54.92268493742375 H 0.0 **** 0.06
1820 H 192.66811356614625 150.91438473705244 53.222926231639406 H 0.0 **** 0.06
1821 C 209.25176837341513 49.561693696235594 62.503119361606 C 0.0 **** -0.24
1822 H 209.54693302015065 49.971812147512566 61.536889659235925 H 0.0 **** 0.06
1823 H 210.13919377812752 49.2353432963195 63.04567047355965 H 0.0 **** 0.06
1824 H 208.58690021839092 48.71152873926921 62.347584688261406 H 0.0 **** 0.06
1825 H 208.73392137241797 50.32745981869682 63.07923639686135 H 0.0 **** 0.06
1826 C 4.347397410346673 205.09649740235494 164.99981270367488 C 0.0 **** -0.24
1827 H 5.172282574506184 204.96794200067006 165.70183630731225 H 0.0 **** 0.06
1828 H 3.5546733374447186 204.38790751078858 165.2378211709268 H 0.0 **** 0.06
1829 H 4.7040104314202935 204.9173014707007 163.98544782359755 H 0.0 **** 0.06
1830 H 3.9621521686192196 206.11373159100083 165.0750114951399 H 0.0 **** 0.06
1831 C 25.219594333758053 100.73978051522347 192.76044151093103 C 0.0 **** -0.24
1832 H 25.249115153679952 99.65150818713836 192.78556041646516 H 0.0 **** 0.06
1833 H 25.26835424133799 101.08040519007535 191.72509689347334 H 0.0 **** 0.06
1834 H 26.068685384405725 101.13937319243253 193.31409140092134 H 0.0 **** 0.06
1835 H 24.293143162006345 101.08945002548963 193.21466235609535 H 0.0 **** 0.06
1836 C 133.59995928267813 110.15518955681843 169.39707624343401 C 0.0 **** -0.24
1837 H 132.82399378050724 110.39891537733025 170.12204892133198 H 0.0 **** 0.06
1838 H 134.1286191393363 111.06485068884415 169.1107677880098 H 0.0 **** 0.06
1839 H 133.14389370629266 109.70607850675422 168.51400171918124 H 0.0 **** 0.06
1840 H 134.30297993719392 109.4500526717229 169.84111799618847 H 0.0 **** 0.06
1841 C 53.318589233023886 149.28493642329795 75.95184089231083 C 0.0 **** -0.24
1842 H 53.161424504969546 150.30571540711793 75.60314237763674 H 0.0 **** 0.06
1843 H 54.34698455308279 148.98602871263273 75.75083499680613 H 0.0 **** 0.06
1844 H 52.635620756864 148.61321999798275 75.43053458759078 H 0.0 **** 0.06
1845 H 53.1276060875208 149.23480367603207 77.02474783915778 H 0.0 **** 0.06
1846 C 202.59801084549758 2.850388091411503 59.91199714367049 C 0.0 **** -0.24
1847 H 201.75501013299416 3.2244229169066614 59.330236110361255 H 0.0 **** 0.06
1848 H 203.26751739806258 2.290343277399927 59.25933726684107 H 0.0 **** 0.06
1849 H 202.2310265142525 2.1972425768420294 60.70393500729119 H 0.0 **** 0.06
1850 H 203.13549298694394 3.689572830464897 60.352742019627726 H 0.0 **** 0.06
1851 C 156.23343797887821 216.56984231686963 20.133066769850714 C 0.0 **** -0.24
1852 H 155.206221446908 216.41127371400898 19.803164740299252 H 0.0 **** 0.06
1853 H 156.23496427719215 217.19482902185314 21.025115196873756 H 0.0 **** 0.06
1854 H 156.79674343905276 217.0630185019487 19.341161259071484 H 0.0 **** 0.06
1855 H 156.693731552263 215.60808345852735 20.361432434066728 H 0.0 **** 0.06
1856 C 198.7341995153838 132.81619021364202 195.01394131220968 C 0.0 **** -0.24
1857 H 199.710155539223 132.33521299268358 195.07688480937117 H 0.0 **** 0.06
1858 H 197.957532262053 132.05458537422038 194.94478076184708 H 0.0 **** 0.06
1859 H 198.69884537925114 133.4530238863502 194.12938373100945 H 0.0 **** 0.06
1860 H 198.5706509810504 133.42327497821236 195.90446088301013 H 0.0 **** 0.06
1861 C 94.03712728399977 197.21519407409755 158.38170625401733 C 0.0 **** -0.24
1862 H 94.61693134189663 196.46980001173807 157.8367951665394 H 0.0 **** 0.06
1863 H 93.37334942215644 197.7344328109986 157.69099198080272 H 0.0 **** 0.06
1864 H 94.71325152927695 197.93262765093266 158.84557928224257 H 0.0 **** 0.06
1865 H 93.44560099767669 196.7208654889942 159.15290535581738 H 0.0 **** 0.06
1866 C 164.1232534367073 190.69574048564903 92.05323389357154 C 0.0 **** -0.24
1867 H 164.4584890600556 189.7089263300987 92.37348074642578 H 0.0 **** 0.06
1868 H 164.36996678467244 191.42973900073136 92.81965924692413 H 0.0 **** 0.06
1869 H 163.04509741375213 190.67905803941642 91.89758877529793 H 0.0 **** 0.06
1870 H 164.62076437375265 190.9617438603736 91.12044977428117 H 0.0 **** 0.06
1871 C 139.58641329527956 66.6864357589734 142.6980814601988 C 0.0 **** -0.24
1872 H 140.42124160848743 66.27915792868754 142.1280853317745 H 0.0 **** 0.06
1873 H 139.69090666774377 66.40606622759606 143.74616933635718 H 0.0 **** 0.06
1874 H 138.65064714836257 66.28877302242392 142.30547325846447 H 0.0 **** 0.06
1875 H 139.58361119743995 67.7733641243828 142.61092052343957 H 0.0 **** 0.06
1876 C 174.89563075395046 58.47004071979838 74.47008211562047 C 0.0 **** -0.24
1877 H 175.23576977090187 59.47592649322304 74.71538272579738 H 0.0 **** 0.06
1878 H 173.92865629779027 58.525503204209016 73.9685061217827 H 0.0 **** 0.06
1879 H 174.79793605093084 57.88637705309853 75.38476817364642 H 0.0 **** 0.06
1880 H 175.62042158609097 57.99255256330264 73.80997041067127 H 0.0 **** 0.06
1881 C 160.60151363536932 110.86262251010741 171.4948967041745 C 0.0 **** -0.24
1882 H 161.01983987336627 110.4279777019485 170.58718739954517 H 0.0 **** 0.06
1883 H 160.46098917358643 111.93399594827444 171.35227144213908 H 0.0 **** 0.06
1884 H 161.2837007254476 110.69222128448452 172.3271504608286 H 0.0 **** 0.06
1885 H 159.64072595908073 110.39432808843704 171.71227549542942 H 0.0 **** 0.06
1886 C 48.10140744639736 148.13151470791263 2.1389110911676426 C 0.0 **** -0.24
1887 H 48.8198555592252 148.56958885369232 1.4454758002823382 H 0.0 **** 0.06
1888 H 47.25318095772292 148.80601982951293 2.2570796432626707 H 0.0 **** 0.06
1889 H 48.58001500891501 147.97446211860535 3.105535848667728 H 0.0 **** 0.06
1890 H 47.75416095223997 147.17602666657092 1.7459739346060985 H 0.0 **** 0.06
1891 C 59.127248899417566 173.42197937495365 116.85888555891411 C 0.0 **** -0.24
1892 H 59.768001896029034 172.5540155020121 117.01216777482433 H 0.0 **** 0.06
1893 H 59.74563143081241 174.31297943893045 116.74223609370473 H 0.0 **** 0.06
1894 H 58.47031224300065 173.5453511916496 117.71923126963499 H 0.0 **** 0.06
1895 H 58.52703884403792 173.27581010820984 115.9604972341943 H 0.0 **** 0.06
1896 C 87.91413958412886 26.33359880064546 154.25390768571827 C 0.0 **** -0.24
1897 H 88.34810145998875 26.942136148050338 155.0465592510502 H 0.0 **** 0.06
1898 H 86.85943585984393 26.58434716354941 154.13905362481938 H 0.0 **** 0.06
1899 H 88.00969764768325 25.279200634620395 154.51276343142513 H 0.0 **** 0.06
1900 H 88.43767483285887 26.52721282776392 153.31827283727887 H 0.0 **** 0.06
1901 C 167.06394292738133 146.9505057065167 89.32349665319548 C 0.0 **** -0.24
1902 H 165.9939657543678 147.14275328242053 89.24662761552416 H 0.0 **** 0.06
1903 H 167.35045246692846 146.90771013878958 90.37464410818212 H 0.0 **** 0.06
1904 H 167.61361488187464 147.75107463423018 88.82867722392187 H 0.0 **** 0.06
1905 H 167.2971535147422 145.99919876628996 88.84410007147515 H 0.0 **** 0.06
1906 C 110.54649571104714 174.30731105865505 148.04940484884054 C 0.0 **** -0.24
1907 H 109.94002135254415 173.68467477717604 147.39133489997994 H 0.0 **** 0.06
1908 H 111.43460956246757 173.75392610992333 148.35522183482652 H 0.0 **** 0.06
1909 H 109.96465214967712 174.57701048235555 148.93194972734136 H 0.0 **** 0.06
1910 H 110.84563990486119 175.21248842474023 147.52071512128327 H 0.0 **** 0.06
1911 C 137.70725871773806 166.8704852116409 162.60182996284587 C 0.0 **** -0.24
1912 H 137.54233523746518 166.66759433592432 163.6606711684608 H 0.0 **** 0.06
1913 H 137.1610459876067 166.1410352429063 162.0037801878861 H 0.0 **** 0.06
1914 H 138.77177858589613 166.79913882822603 162.38000735288816 H 0.0 **** 0.06
1915 H 137.3530350825884 167.8734416809879 162.36504300640985 H 0.0 **** 0.06
1916 C 89.55227796548054 146.01297942744878 29.707342574212205 C 0.0 **** -0.24
1917 H 90.63098774924391 146.00042112963996 29.862176750641453 H 0.0 **** 0.06
1918 H 89.17438729366474 144.9895116028746 29.703168103079634 H 0.0 **** 0.06
1919 H 89.32719725522644 146.4876520571019 28.75164349704437 H 0.0 **** 0.06
1920 H 89.07609848933184 146.57360977227205 30.511850413037692 H 0.0 **** 0.06
1921 C 125.72828195414866 53.88277711642651 65.75105072679695 C 0.0 **** -0.24
1922 H 126.64775309768322 53.51819993531902 65.29298912293947 H 0.0 **** 0.06
1923 H 124.87151699113952 53.39780097914924 65.282448450312 H 0.0 **** 0.06
1924 H 125.65686836282191 54.96193210328056 65.61351615563535 H 0.0 **** 0.06
1925 H 125.73831425356747 53.65217018743681 66.81674390442373 H 0.0 **** 0.06
1926 C 155.37144261710455 70.7288613826783 139.1040538939372 C 0.0 **** -0.24
1927 H 154.8740364542341 70.71444351910475 138.1333668173271 H 0.0 **** 0.06
1928 H 154.65043826776912 70.48448263968203 139.88364922608065 H 0.0 **** 0.06
1929 H 155.782295154454 71.72226093727579 139.28566794354583 H 0.0 **** 0.06
1930 H 156.1768977926606 69.99521205585808 139.11011557798906 H 0.0 **** 0.06
1931 C 30.801431435772315 141.38259596708343 198.815571648432 C 0.0 **** -0.24
1932 H 29.743696789218518 141.62426075660284 198.9172066523144 H 0.0 **** 0.06
1933 H 30.90650624245535 140.37668570595667 198.40805111777132 H 0.0 **** 0.06
1934 H 31.281002216789005 141.43060477693143 199.79308796657398 H 0.0 **** 0.06
1935 H 31.274520494626415 142.09883262884273 198.14394085706834 H 0.0 **** 0.06
1936 C 40.34718386886206 211.57266253388332 126.50093187677201 C 0.0 **** -0.24
1937 H 39.660782875450195 212.30927940466484 126.08403693886028 H 0.0 **** 0.06
1938 H 41.37349904313359 211.8639098082076 126.27431027874344 H 0.0 **** 0.06
1939 H 40.141738128719965 210.5957417855875 126.06387349670455 H 0.0 **** 0.06
1940 H 40.21388922721334 211.5233254313439 127.58171193238523 H 0.0 **** 0.06
1941 C 2.2980848251819452 32.885687625555136 32.927033430983045 C 0.0 **** -0.24
1942 H 1.6633733696844786 33.28742028325752 32.13758972436307 H 0.0 **** 0.06
1943 H 1.686695725654424 32.32963593343442 33.63804329624014 H 0.0 **** 0.06
1944 H 2.8000181881584467 33.7056581914585 33.44151697955692 H 0.0 **** 0.06
1945 H 3.044278672363987 32.220955152244926 32.49076443905918 H 0.0 **** 0.06
1946 C 163.66306124613902 156.95787067909174 119.29072510867597 C 0.0 **** -0.24
1947 H 164.2804586632077 156.24654272657716 119.84003205714198 H 0.0 **** 0.06
1948 H 164.06766950220248 157.0899402469051 118.28664346565539 H 0.0 **** 0.06
1949 H 163.66344412076648 157.91539365894255 119.81167206892302 H 0.0 **** 0.06
1950 H 162.64362984569556 156.57958580557045 119.22605452703 H 0.0 **** 0.06
1951 C 143.5508957561363 183.46996751516065 92.06868757327724 C 0.0 **** -0.24
1952 H 143.3071962694852 182.6885059481364 92.78839690022433 H 0.0 **** 0.06
1953 H 143.85908322891032 184.3704353673969 92.60083913130198 H 0.0 **** 0.06
1954 H 142.6755551655827 183.68923616253852 91.45879724187044 H 0.0 **** 0.06
1955 H 144.36467654840055 183.13139968397704 91.4273001826091 H 0.0 **** 0.06
1956 C 24.97923704511851 192.03876655270096 152.85196950091472 C 0.0 **** -0.24
1957 H 25.422941979590448 192.67873279525983 152.08895489752962 H 0.0 **** 0.06
1958 H 25.67790268895527 191.24373082731017 153.11072350439372 H 0.0 **** 0.06
1959 H 24.057057571117568 191.60187864012988 152.46691998363036 H 0.0 **** 0.06
1960 H 24.75706152366631 192.63135020007684 153.73936388517643 H 0.0 **** 0.06
1961 C 6.292979868413283 204.9826188449073 201.31425907464916 C 0.0 **** -0.24
1962 H 6.609417053521014 205.29473163901812 202.309739991355 H 0.0 **** 0.06
1963 H 5.696782866399147 205.77386286519476 200.8578171817988 H 0.0 **** 0.06
1964 H 5.694153894750542 204.07524046982567 201.39202199771245 H 0.0 **** 0.06
1965 H 7.171485477678999 204.78728164127617 200.69871507115212 H 0.0 **** 0.06
1966 C 93.72928234461676 36.93343363525406 117.86013750595636 C 0.0 **** -0.24
1967 H 94.30341668030235 37.84226862900147 117.67868816668836 H 0.0 **** 0.06
1968 H 94.1731236401161 36.38200398754333 118.68867560118765 H 0.0 **** 0.06
1969 H 93.7384093844741 36.31322216774953 116.96341871946187 H 0.0 **** 0.06
1970 H 92.70079576462655 37.196988561737726 118.1085329698157 H 0.0 **** 0.06
1971 C 22.757818145414802 75.62804643323317 186.00504701374354 C 0.0 **** -0.24
1972 H 23.038211434997095 76.54433318558434 185.48562105594553 H 0.0 **** 0.06
1973 H 21.801038024255945 75.27301778505814 185.62314835947558 H 0.0 **** 0.06
1974 H 22.67270996097068 75.82816448817339 187.07327522099501 H 0.0 **** 0.06
1975 H 23.521756785809572 74.86827622207083 185.83747275945888 H 0.0 **** 0.06
1976 C 209.4842019473256 153.90322607978771 208.8446924331568 C 0.0 **** -0.24
1977 H 209.43007252556936 154.06333340984077 207.76821820092476 H 0.0 **** 0.06
1978 H 208.66445202860965 154.43069820587243 209.3326692436959 H 0.0 **** 0.06
1979 H 210.43523409546566 154.28313308199733 209.22071330332486 H 0.0 **** 0.06
1980 H 209.4095969832902 152.83695076149877 209.0573733573193 H 0.0 **** 0.06
1981 C 197.7391126306978 140.7985998345942 114.79201980284269 C 0.0 **** -0.24
1982 H 197.77911924623328 139.71552147672202 114.90472235613406 H 0.0 **** 0.06
1983 H 197.991527527231 141.06615377581687 113.76483735352708 H 0.0 **** 0.06
1984 H 198.45169313491903 141.2613815475184 115.47360341516635 H 0.0 **** 0.06
1985 H 196.73329686835666 141.15072240878692 115.02292778539113 H 0.0 **** 0.06
1986 C 130.3776944045889 172.70244113829813 192.05781989411395 C 0.0 **** -0.24
1987 H 130.33602537224965 173.24581318625704 191.1141336982564 H 0.0 **** 0.06
1988 H 130.34664890262906 173.4102029920465 192.8863870170013 H 0.0 **** 0.06
1989 H 131.30408952118665 172.12872778076843 192.104960460409 H 0.0 **** 0.06
1990 H 129.5267223243178 172.02448080172047 192.12518784651326 H 0.0 **** 0.06
1991 C 22.947679819213533 73.95620344145544 88.65212374354114 C 0.0 **** -0.24
1992 H 23.806038096175442 73.4427540658881 88.21996182017209 H 0.0 **** 0.06
1993 H 23.293339274811018 74.69775638186428 89.37371084661363 H 0.0 **** 0.06
1994 H 22.306234478297085 73.23189295611195 89.1541151096039 H 0.0 **** 0.06
1995 H 22.385910561273548 74.45346012364575 87.86121019931657 H 0.0 **** 0.06
1996 C 13.479757713164702 9.846502685942255 3.455735555318043 C 0.0 **** -0.24
1997 H 14.223085623097347 9.668668622417442 2.678897867666322 H 0.0 **** 0.06
1998 H 13.565641450701065 9.076165281043075 4.222483501514439 H 0.0 **** 0.06
1999 H 12.481756179303687 9.814346412839313 3.018122647954222 H 0.0 **** 0.06
2000 H 13.649164934390598 10.82523425949961 3.903171377672841 H 0.0 **** 0.06
2001 C 78.7267524922449 52.37912106057939 16.28919298896301 C 0.0 **** -0.24
2002 H 79.0953312850739 52.35146202032911 17.314169950761425 H 0.0 **** 0.06
2003 H 79.51836241888945 52.061993713987874 15.609774032053679 H 0.0 **** 0.06
2004 H 78.41947776904608 53.39534596918307 16.04042938284465 H 0.0 **** 0.06
2005 H 77.87377228586088 51.70774045859662 16.19140245843903 H 0.0 **** 0.06
2006 C 48.2516279526927 190.25891196314103 25.46230435629022 C 0.0 **** -0.24
2007 H 48.225046778603 190.2302426091152 24.372399466708416 H 0.0 **** 0.06
2008 H 47.294229409764455 190.61987895322392 25.839732521724343 H 0.0 **** 0.06
2009 H 49.04649510124254 190.92938392598856 25.788047643067543 H 0.0 **** 0.06
2010 H 48.4398401745605 189.2570109588907 25.847184417263136 H 0.0 **** 0.06
2011 C 132.26877766437548 12.638352348428185 153.514465983609 C 0.0 **** -0.24
2012 H 131.53128925559668 11.904281259223183 153.83772533004293 H 0.0 **** 0.06
2013 H 132.1880335909791 12.783689086020786 152.43702142762965 H 0.0 **** 0.06
2014 H 133.26880986005466 12.280195405121503 153.76030202580978 H 0.0 **** 0.06
2015 H 132.08654208739426 13.58440178855011 154.02426475585702 H 0.0 **** 0.06
2016 C 8.634183190347997 77.9181726952748 90.09780889795321 C 0.0 **** -0.24
2017 H 8.487770691757447 76.97338669996152 89.57547957717485 H 0.0 **** 0.06
2018 H 9.637909103393255 78.29341305863873 89.8969927973889 H 0.0 **** 0.06
2019 H 8.511960183890551 77.76299576215926 91.1695191124917 H 0.0 **** 0.06
2020 H 7.8982919503844755 78.64346707396332 89.74942218982274 H 0.0 **** 0.06
2021 C 128.9848455183066 103.31940783539973 151.28598396970125 C 0.0 **** -0.24
2022 H 129.19008966455021 104.36629987001804 151.5128122519659 H 0.0 **** 0.06
2023 H 127.91858487887463 103.18979151298909 151.10458394416128 H 0.0 **** 0.06
2024 H 129.28882242358765 102.69923757916597 152.12928761146634 H 0.0 **** 0.06
2025 H 129.54439677124356 103.02485988865494 150.39764053698508 H 0.0 **** 0.06
2026 C 202.22159121513167 181.7472610736446 13.331755217718225 C 0.0 **** -0.24
2027 H 202.32238735392696 181.61367662037088 12.254615732257037 H 0.0 **** 0.06
2028 H 201.34773828746546 181.1994870966497 13.685567145731696 H 0.0 **** 0.06
2029 H 202.10248074576458 182.8074164052491 13.55637381344144 H 0.0 **** 0.06
2030 H 203.11469345601077 181.368590225554 13.829011606247718 H 0.0 **** 0.06
2031 C 199.17018291341384 216.61282589691749 113.88078783241407 C 0.0 **** -0.24
2032 H 198.7172081002937 217.5391318561302 114.23485312801473 H 0.0 **** 0.06
2033 H 200.1805734444103 216.5265044782779 114.28338535300271 H 0.0 **** 0.06
2034 H 199.21214051312296 216.62218908286326 112.79151374766532 H 0.0 **** 0.06
2035 H 198.57272889480578 215.76545813540645 114.21458070265855 H 0.0 **** 0.06
2036 C 80.65315082447826 212.13596465412172 114.76200536565558 C 0.0 **** -0.24
2037 H 80.38897054958399 211.4899756523239 113.92415923113766 H 0.0 **** 0.06
2038 H 80.80397307224602 213.15409686730993 114.40136065851839 H 0.0 **** 0.06
2039 H 81.57227110459216 211.77409284599997 115.22331854485078 H 0.0 **** 0.06
2040 H 79.84903835704536 212.12561546667922 115.497374089493 H 0.0 **** 0.06
2041 C 56.75480084098068 124.36227697181498 105.91822660582561 C 0.0 **** -0.24
2042 H 57.00925575789195 123.38942722421227 105.49785629646031 H 0.0 **** 0.06
2043 H 55.77392296351189 124.66999205632281 105.55448058153844 H 0.0 **** 0.06
2044 H 57.50177315136551 125.09590329835454 105.61511125423799 H 0.0 **** 0.06
2045 H 56.733774434501115 124.29302378888777 107.00589706432994 H 0.0 **** 0.06
2046 C 141.7753702856076 9.341945951669487 70.41248739186311 C 0.0 **** -0.24
2047 H 141.21849856766522 9.14280262195129 71.32784631212921 H 0.0 **** 0.06
2048 H 142.64895530284235 8.689933401033144 70.36860090603504 H 0.0 **** 0.06
2049 H 142.09795746568324 10.38310064613627 70.40250985893066 H 0.0 **** 0.06
2050 H 141.13587873211344 9.151397523531728 69.54970351828676 H 0.0 **** 0.06
2051 C 204.559150603096 147.06676872954654 96.79517525067372 C 0.0 **** -0.24
2052 H 204.9749003097001 147.96288382751266 96.3351893396085 H 0.0 **** 0.06
2053 H 205.36623639500698 146.45988958900176 97.20570706676527 H 0.0 **** 0.06
2054 H 204.0168062244654 146.49167408959022 96.04495271036491 H 0.0 **** 0.06
2055 H 203.8763753367466 147.35301601258107 97.59564672321731 H 0.0 **** 0.06
2056 C 96.92353595388714 26.271785164560825 59.22001006436149 C 0.0 **** -0.24
2057 H 97.00902116167528 25.726543123176356 60.15967624081878 H 0.0 **** 0.06
2058 H 96.15568896881665 25.80956169294575 58.600617954424834 H 0.0 **** 0.06
2059 H 97.87956595141044 26.245008491514852 58.69603791830089 H 0.0 **** 0.06
2060 H 96.65075030659223 27.307824581947884 59.424703688598825 H 0.0 **** 0.06
2061 C 85.98691601136778 161.30971494415485 180.1562980966374 C 0.0 **** -0.24
2062 H 86.04347745122396 162.23663701145733 180.7267430247884 H 0.0 **** 0.06
2063 H 84.96185403426205 161.1529662752178 179.8185600970773 H 0.0 **** 0.06
2064 H 86.29289241862517 160.47478069634232 180.7880800265045 H 0.0 **** 0.06
2065 H 86.64914649357218 161.3728402976909 179.29330556997627 H 0.0 **** 0.06
2066 C 178.0103165411308 0.6545441645824326 186.8098375944922 C 0.0 **** -0.24
2067 H 177.62717901486656 1.395814693478954 187.511448443136 H 0.0 **** 0.06
2068 H 178.31579196500562 1.1499375366470588 185.8891860431832 H 0.0 **** 0.06
2069 H 177.2307173109433 -0.07441441437857321 186.59018888581335 H 0.0 **** 0.06
2070 H 178.86843179560935 0.14707834591933988 187.25156240120188 H 0.0 **** 0.06
2071 C 197.96954435624733 179.98211949820887 114.86885279039133 C 0.0 **** -0.24
2072 H 198.88726609755565 180.5358602980318 114.67055233687536 H 0.0 **** 0.06
2073 H 198.21566684062364 179.0227231145965 115.32441776507996 H 0.0 **** 0.06
2074 H 197.4367785308257 179.81491766686972 113.93220062621815 H 0.0 **** 0.06
2075 H 197.3379718914112 180.55557525609606 115.54760963779141 H 0.0 **** 0.06
2076 C 33.668909244526844 34.847616023847294 145.24610049045145 C 0.0 **** -0.24
2077 H 32.749851961919404 35.433033606519544 145.2770376173774 H 0.0 **** 0.06
2078 H 34.442326420479446 35.413158194637575 144.72622832861327 H 0.0 **** 0.06
2079 H 33.48550582136238 33.91191441443469 144.71797188960323 H 0.0 **** 0.06
2080 H 33.996831248986325 34.63321630436063 146.26309117394044 H 0.0 **** 0.06
2081 C 37.10791836355553 128.41391529365626 135.51389415853146 C 0.0 **** -0.24
2082 H 37.16760104445568 129.4610874219598 135.21595345724222 H 0.0 **** 0.06
2083 H 38.07768317485649 128.08580404299596 135.887055439832 H 0.0 **** 0.06
2084 H 36.82515244891971 127.8077380163041 134.6531138806438 H 0.0 **** 0.06
2085 H 36.359060313596544 128.30285770599897 136.2980650384684 H 0.0 **** 0.06
2086 C 56.65352197846036 210.75808845951855 208.65345895982233 C 0.0 **** -0.24
2087 H 57.48909788361584 210.06658518951457 208.75850304114218 H 0.0 **** 0.06
2088 H 56.65095072331977 211.17619232033735 207.64703326448944 H 0.0 **** 0.06
2089 H 56.75511072804676 211.5639886549843 209.38126577568855 H 0.0 **** 0.06
2090 H 55.7180560691188 210.22633835689754 208.8291960027495 H 0.0 **** 0.06
2091 C 181.86111872033513 11.403925056638954 168.21473149119333 C 0.0 **** -0.24
2092 H 181.9238399263431 11.889406447146442 169.1886483290632 H 0.0 **** 0.06
2093 H 181.69445894627603 12.15718729313943 167.4443162331118 H 0.0 **** 0.06
2094 H 181.032622737792 10.69489605666655 168.21593072812374 H 0.0 **** 0.06
2095 H 182.79238281194358 10.874604272049098 168.0121460977382 H 0.0 **** 0.06
2096 C 153.98695980940295 189.6197766818371 91.14683621330568 C 0.0 **** -0.24
2097 H 153.53475658485422 189.69646174630742 92.13554283206497 H 0.0 **** 0.06
2098 H 154.62847488555843 188.73921928119148 91.10820703788926 H 0.0 **** 0.06
2099 H 154.58066298757876 190.51152277918936 90.94886765487757 H 0.0 **** 0.06
2100 H 153.20186776660677 189.53121980912363 90.39519579430583 H 0.0 **** 0.06
2101 C 13.9807253631175 204.60376407515201 192.22749548660647 C 0.0 **** -0.24
2102 H 14.096282461251747 204.87525867699262 191.17849817298634 H 0.0 **** 0.06
2103 H 14.651691480948529 205.21063968937554 192.8356086319254 H 0.0 **** 0.06
2104 H 14.224813031224983 203.54878877789332 192.35853935940474 H 0.0 **** 0.06
2105 H 12.950235816558632 204.7794169998323 192.53629717290562 H 0.0 **** 0.06
2106 C 165.06519741606485 93.69609186528025 30.006125706699464 C 0.0 **** -0.24
2107 H 164.37609837254934 94.51931132998466 30.19068283202523 H 0.0 **** 0.06
2108 H 165.05113038401572 93.43973737023627 28.946668943742154 H 0.0 **** 0.06
2109 H 164.76068703859443 92.82898229213883 30.592854406878757 H 0.0 **** 0.06
2110 H 166.07300657834008 93.99343784241582 30.295058553664987 H 0.0 **** 0.06
2111 C 189.27162119603224 200.03981296371086 208.95139185913922 C 0.0 **** -0.24
2112 H 189.04277530612865 199.98209831195624 210.0155608848275 H 0.0 **** 0.06
2113 H 189.55715871250723 201.06105560580966 208.6972010924063 H 0.0 **** 0.06
2114 H 188.39251070307188 199.753266855637 208.37478003625026 H 0.0 **** 0.06
2115 H 190.09459704426783 199.364153534944 208.7204628445679 H 0.0 **** 0.06
2116 C 134.41215057320437 163.87889805935254 151.81512853637446 C 0.0 **** -0.24
2117 H 134.52041803925283 162.95300802160384 151.25007550041408 H 0.0 **** 0.06
2118 H 134.99784463064242 163.81403608864176 152.73269790744632 H 0.0 **** 0.06
2119 H 133.3626158315135 164.0317010385566 152.06424937526964 H 0.0 **** 0.06
2120 H 134.7691642932606 164.71478629549264 151.21478682434775 H 0.0 **** 0.06
2121 C 46.80115427854116 171.3479964348903 5.938838910283835 C 0.0 **** -0.24
2122 H 45.784775713175975 171.56994097095986 5.611654875968156 H 0.0 **** 0.06
2123 H 46.773936800712875 170.91531157616873 6.938914986743612 H 0.0 **** 0.06
2124 H 47.385715795509725 172.2676063581699 5.955408496918977 H 0.0 **** 0.06
2125 H 47.25746270171214 170.63939848161735 5.2481546931051355 H 0.0 **** 0.06
2126 C 63.32519725772181 183.06491801458756 95.43400060739133 C 0.0 **** -0.24
2127 H 63.074933020207126 183.25502935287597 94.39028626556514 H 0.0 **** 0.06
2128 H 64.34291325584097 182.67901669083477 95.49927285355206 H 0.0 **** 0.06
2129 H 62.63190942699862 182.33243296160043 95.84720003191167 H 0.0 **** 0.06
2130 H 63.252155404695955 183.99413666325063 96.00016555514661 H 0.0 **** 0.06
2131 C 34.51310507403474 141.8778814498641 145.7237424537401 C 0.0 **** -0.24
2132 H 34.46219306719442 142.87634241119542 146.15838807780824 H 0.0 **** 0.06
2133 H 35.55661767418036 141.58336456095117 145.6122866697666 H 0.0 **** 0.06
2134 H 34.02955040649701 141.88187507840655 144.7469169473926 H 0.0 **** 0.06
2135 H 34.00337067798651 141.170103535083 146.37860307343993 H 0.0 **** 0.06
2136 C 50.0976189135081 151.85954507947343 172.04204897091398 C 0.0 **** -0.24
2137 H 49.57754502510517 152.39898713344616 172.83422986774605 H 0.0 **** 0.06
2138 H 50.35615876029874 150.8597419343435 172.3920889259116 H 0.0 **** 0.06
2139 H 51.005865513538865 152.3978802666611 171.77169277724164 H 0.0 **** 0.06
2140 H 49.44826041169807 151.78214182379293 171.1693637882571 H 0.0 **** 0.06
2141 C 199.71462909351413 17.282025252558697 111.20750432941445 C 0.0 **** -0.24
2142 H 198.88727713074945 16.817963771100153 111.74540285737628 H 0.0 **** 0.06
2143 H 200.36973093573738 16.505966071760497 110.81133281914747 H 0.0 **** 0.06
2144 H 200.27815583728682 17.92008790009868 111.88854457073741 H 0.0 **** 0.06
2145 H 199.32283432125837 17.88225804386701 110.38683473974326 H 0.0 **** 0.06
2146 C 5.318303567736024 124.09392619279716 27.016892604799068 C 0.0 **** -0.24
2147 H 4.869302835691514 124.48573613303374 27.9297811283609 H 0.0 **** 0.06
2148 H 5.87220995948752 123.18380095776091 27.24570451903037 H 0.0 **** 0.06
2149 H 5.996743034497172 124.83706735397722 26.598679465416154 H 0.0 **** 0.06
2150 H 4.534214197632991 123.87066348261483 26.29345721937983 H 0.0 **** 0.06
2151 C 108.54245413229688 72.0896574615303 0.10097547896307191 C 0.0 **** -0.24
2152 H 107.77833909851239 71.64110487596895 0.7360187326127132 H 0.0 **** 0.06
2153 H 108.31814146934721 71.87425987788191 -0.9440455056885 H 0.0 **** 0.06
2154 H 109.5167516816627 71.67372180719593 0.3573559608507537 H 0.0 **** 0.06
2155 H 108.55518291281925 73.16832644232966 0.2567071133022125 H 0.0 **** 0.06
2156 C 187.35681898616417 48.755091647351534 80.35532889637865 C 0.0 **** -0.24
2157 H 187.10751267113233 48.293775697492535 81.31045405967733 H 0.0 **** 0.06
2158 H 188.38098181296346 48.498383252882036 80.08409938899352 H 0.0 **** 0.06
2159 H 187.2634267358804 49.83712877381072 80.44019737070694 H 0.0 **** 0.06
2160 H 186.6753547246806 48.39107886522078 79.58656476613693 H 0.0 **** 0.06
2161 C 85.9763611465935 64.17350675835425 215.8027174685272 C 0.0 **** -0.24
2162 H 87.05118774333657 64.0878857590194 215.64346306387557 H 0.0 **** 0.06
2163 H 85.72854441362232 65.20410996841167 216.05869411494263 H 0.0 **** 0.06
2164 H 85.67687896918794 63.51479335864366 216.6169743037915 H 0.0 **** 0.06
2165 H 85.45017481787308 63.8892873292466 214.89170847210465 H 0.0 **** 0.06
2166 C 204.10132113058808 149.40338241276817 78.55971244132884 C 0.0 **** -0.24
2167 H 203.53689546975093 150.33127200025092 78.47274861662628 H 0.0 **** 0.06
2168 H 203.55915897176644 148.7062721164533 79.1985133200965 H 0.0 **** 0.06
2169 H 205.07841253444815 149.6120023775843 78.99687746334136 H 0.0 **** 0.06
2170 H 204.23322521863656 148.96353995459873 77.57062797682092 H 0.0 **** 0.06
2171 C 178.8696673928912 146.28557680216142 138.58011216702295 C 0.0 **** -0.24
2172 H 178.86266187534738 146.3160687903033 139.6694855150746 H 0.0 **** 0.06
2173 H 179.5698816493956 145.52030471462837 138.24282773096905 H 0.0 **** 0.06
2174 H 179.17822965105546 147.25672532896442 138.19187766994833 H 0.0 **** 0.06
2175 H 177.86928518405045 146.04940762114467 138.21643552125732 H 0.0 **** 0.06
2176 C 18.18074985787942 149.4142238870216 40.44595251564516 C 0.0 **** -0.24
2177 H 18.609468490647714 149.81260522307167 39.526172765684294 H 0.0 **** 0.06
2178 H 18.492647162779676 150.03033200356543 41.2890444378624 H 0.0 **** 0.06
2179 H 18.527964989422927 148.39179636778175 40.59406650141028 H 0.0 **** 0.06
2180 H 17.092971236489802 149.42169744108054 40.37212186620644 H 0.0 **** 0.06
2181 C 161.26902879493852 162.11383307158843 28.802650304174648 C 0.0 **** -0.24
2182 H 161.17106523473146 163.18457784875432 28.621645021257677 H 0.0 **** 0.06
2183 H 160.31165508245186 161.62536933053147 28.62033768804244 H 0.0 **** 0.06
2184 H 161.5727899094492 161.94636090710142 29.835792786745017 H 0.0 **** 0.06
2185 H 162.02119226782278 161.69928611090154 28.1312174560762 H 0.0 **** 0.06
2186 C 183.6323468421699 67.80760860453012 75.97501614911431 C 0.0 **** -0.24
2187 H 184.70050561364133 67.99533262698986 75.86158033731613 H 0.0 **** 0.06
2188 H 183.15067660050823 68.69049134420055 76.39536598472762 H 0.0 **** 0.06
2189 H 183.48234653172494 66.95836014653713 76.64309633382413 H 0.0 **** 0.06
2190 H 183.19721840080223 67.58464767357765 75.00078527264986 H 0.0 **** 0.06
2191 C 64.42821620605193 132.2453536310848 187.41392503209676 C 0.0 **** -0.24
2192 H 65.27768209108 132.46612876850656 188.0606523268632 H 0.0 **** 0.06
2193 H 63.58604757524914 132.88043316204534 187.69159236890172 H 0.0 **** 0.06
2194 H 64.14684802350219 131.19882603981665 187.52909914206992 H 0.0 **** 0.06
2195 H 64.70150422558548 132.4364382181309 186.37640998750868 H 0.0 **** 0.06
2196 C 190.00751414923613 20.28841225135443 204.9691023598399 C 0.0 **** -0.24
2197 H 188.92041245847946 20.253797272759243 205.04032632470523 H 0.0 **** 0.06
2198 H 190.39157316646288 21.049474738135245 205.64997807284726 H 0.0 **** 0.06
2199 H 190.29714591909317 20.536247911648957 203.9478912840235 H 0.0 **** 0.06
2200 H 190.42029033815598 19.31689312469183 205.2391922068387 H 0.0 **** 0.06
2201 C 142.75154042400936 37.30426781503189 47.85220729244355 C 0.0 **** -0.24
2202 H 142.3240549159545 38.140661134547315 47.30012987493325 H 0.0 **** 0.06
2203 H 141.97070010906754 36.82138146187185 48.44040141180059 H 0.0 **** 0.06
2204 H 143.5336675524439 37.66952405115495 48.51767116935656 H 0.0 **** 0.06
2205 H 143.17665048589873 36.58500512323951 47.15276341465079 H 0.0 **** 0.06
2206 C 161.8525689260198 8.085084590446911 56.065412769178536 C 0.0 **** -0.24
2207 H 162.93337425126066 8.093462343079295 56.20524764722593 H 0.0 **** 0.06
2208 H 161.36586102681517 8.443248064629387 56.973320532290586 H 0.0 **** 0.06
2209 H 161.52193547201722 7.068396783002015 55.85277091201728 H 0.0 **** 0.06
2210 H 161.58867414308037 8.734103684665115 55.23104901316647 H 0.0 **** 0.06
2211 C 58.34956590524121 123.13784284480495 151.63192240364498 C 0.0 **** -0.24
2212 H 58.84938642610972 122.77920308202083 152.5311699151536 H 0.0 **** 0.06
2213 H 58.097125299253605 122.28915711168737 150.994373626291 H 0.0 **** 0.06
2214 H 59.014147706334015 123.81315817575792 151.09142226498903 H 0.0 **** 0.06
2215 H 57.43869462032352 123.6687940870881 151.9090837692304 H 0.0 **** 0.06
2216 C 60.90612818840822 138.86612579328812 199.38248524618234 C 0.0 **** -0.24
2217 H 60.32626278301217 138.9288802630021 198.46208907528415 H 0.0 **** 0.06
2218 H 60.59299450607051 139.65872437680758 200.06304673608207 H 0.0 **** 0.06
2219 H 61.96521945217688 138.9799850051349 199.15285097362056 H 0.0 **** 0.06
2220 H 60.73832040334008 137.89710172390568 199.85180818991103 H 0.0 **** 0.06
2221 C 140.08192070064564 155.76254572038795 124.99355369207912 C 0.0 **** -0.24
2222 H 139.16502871887064 155.3998811852149 124.52990010382702 H 0.0 **** 0.06
2223 H 140.16926229562898 155.34806416323067 125.99814994445357 H 0.0 **** 0.06
2224 H 140.055715993006 156.85069214683233 125.05012932280876 H 0.0 **** 0.06
2225 H 140.9385907640667 155.45049887210962 124.3962955390137 H 0.0 **** 0.06
2226 C 168.83019380395035 158.73492691404184 105.56315159540166 C 0.0 **** -0.24
2227 H 169.7049769324853 158.8211316702941 106.20717748274392 H 0.0 **** 0.06
2228 H 167.9264981008295 158.8689869188637 106.15848859595526 H 0.0 **** 0.06
2229 H 168.81662938295815 157.74959761619363 105.09795023337803 H 0.0 **** 0.06
2230 H 168.87290959576444 159.5012733406713 104.78953758085736 H 0.0 **** 0.06
2231 C 157.40821282252227 28.09784835665687 41.88745917651765 C 0.0 **** -0.24
2232 H 157.30394206668262 28.838082983326387 42.681141389125955 H 0.0 **** 0.06
2233 H 158.45105265598357 27.78917551243717 41.814245144229375 H 0.0 **** 0.06
2234 H 157.09056113275267 28.533930684079706 40.940415491158774 H 0.0 **** 0.06
2235 H 156.78759469525926 27.23213217188905 42.11512721651481 H 0.0 **** 0.06
2236 C 205.1742992081793 203.48643731980536 179.99377549084727 C 0.0 **** -0.24
2237 H 205.46999519556658 202.65659185998993 180.6356146696299 H 0.0 **** 0.06
2238 H 205.9171792955822 204.2811879498759 180.06197922409257 H 0.0 **** 0.06
2239 H 204.20462768056314 203.86662628026255 180.31597981786004 H 0.0 **** 0.06
2240 H 205.1046089200672 203.1403993222143 178.96222950810125 H 0.0 **** 0.06
2241 C 203.64067006852667 108.07321784176814 97.20200502013962 C 0.0 **** -0.24
2242 H 202.79629921931263 108.45901857042922 97.77260715067031 H 0.0 **** 0.06
2243 H 203.30066922415398 107.76456092091017 96.21364655215017 H 0.0 **** 0.06
2244 H 204.0695719407177 107.21631513719042 97.7231759185358 H 0.0 **** 0.06
2245 H 204.39705172561898 108.8510505053727 97.09979805314448 H 0.0 **** 0.06
2246 C 31.855102682500558 210.44523637169888 35.008498691334154 C 0.0 **** -0.24
2247 H 31.082319309323253 210.99736210220445 34.473268666587245 H 0.0 **** 0.06
2248 H 31.386390078249946 209.7368859940886 35.69252895012852 H 0.0 **** 0.06
2249 H 32.47428468131193 211.14097352520778 35.57313359179989 H 0.0 **** 0.06
2250 H 32.47571075042961 209.90428614422868 34.293057820197475 H 0.0 **** 0.06
2251 C 132.30268798054556 28.828344942538337 183.60259022579044 C 0.0 **** -0.24
2252 H 133.36507752406635 28.74463576328911 183.82879222952613 H 0.0 **** 0.06
2253 H 131.84545103140465 29.557005157714997 184.27229076090214 H 0.0 **** 0.06
2254 H 131.8244751413706 27.858778522979108 183.73821676772877 H 0.0 **** 0.06
2255 H 132.176109465752 29.1552731727959 182.57033979381112 H 0.0 **** 0.06
2256 C 13.094793785568129 165.23082642001356 195.5959706323329 C 0.0 **** -0.24
2257 H 13.413642608463164 165.6804306203769 196.53714949611995 H 0.0 **** 0.06
2258 H 13.9612363007966 164.81791444531717 195.07971178300386 H 0.0 **** 0.06
2259 H 12.626666120107984 165.99087570521527 194.97095967353414 H 0.0 **** 0.06
2260 H 12.378560445518417 164.43505449715383 195.79874383931192 H 0.0 **** 0.06
2261 C 6.410604249358073 190.69716619092623 120.0580070989161 C 0.0 **** -0.24
2262 H 6.591015110159901 189.88438358118066 119.35499538125386 H 0.0 **** 0.06
2263 H 7.104265932289593 191.51311383618804 119.85590058964506 H 0.0 **** 0.06
2264 H 6.559815403527693 190.33661499494477 121.07583616388267 H 0.0 **** 0.06
2265 H 5.386764265915247 191.05391790730243 119.9458329582318 H 0.0 **** 0.06
2266 C 44.92542294191168 214.90190186022056 93.837904601756 C 0.0 **** -0.24
2267 H 44.11336152467857 214.9229897910484 94.56417843298497 H 0.0 **** 0.06
2268 H 45.86505050941207 214.69549696002002 94.35010981850921 H 0.0 **** 0.06
2269 H 44.98904133953715 215.86775114701467 93.33708329120593 H 0.0 **** 0.06
2270 H 44.73461828879397 214.12229417144545 93.10021931844291 H 0.0 **** 0.06
2271 C 213.36326557728984 88.78133403302841 36.838132705538186 C 0.0 **** -0.24
2272 H 213.3126653687877 88.91128063557981 37.919333723759365 H 0.0 **** 0.06
2273 H 213.70604840835838 87.77088585047615 36.61064078414687 H 0.0 **** 0.06
2274 H 214.0606858830342 89.50526733322674 36.41754785300516 H 0.0 **** 0.06
2275 H 212.37438541401752 88.93580378717532 36.4070268648955 H 0.0 **** 0.06
2276 C 155.71014222407922 160.86018243558976 132.10897921369036 C 0.0 **** -0.24
2277 H 155.34503723442754 160.81019538065289 131.083094824567 H 0.0 **** 0.06
2278 H 154.95240102925322 161.32251826033058 132.74224062715615 H 0.0 **** 0.06
2279 H 156.62336974712804 161.45502451202924 132.14083112632323 H 0.0 **** 0.06
2280 H 155.92051267151544 159.8535753330948 132.4694435553701 H 0.0 **** 0.06
2281 C 197.39766646757897 33.31550970661878 139.53761647799968 C 0.0 **** -0.24
2282 H 196.749564903201 33.18227525310462 138.67204495545423 H 0.0 **** 0.06
2283 H 198.43052865685337 33.41764177468231 139.2054089122579 H 0.0 **** 0.06
2284 H 197.31132381103242 32.448562740963695 140.19306979494968 H 0.0 **** 0.06
2285 H 197.09971020262375 34.21206833123938 140.08069365825924 H 0.0 **** 0.06
2286 C 87.79805889703914 9.013877762395808 106.98228078271852 C 0.0 **** -0.24
2287 H 88.37887692293509 8.305718688175006 107.57307793850502 H 0.0 **** 0.06
2288 H 87.62693852631713 9.919056918774615 107.5664371660629 H 0.0 **** 0.06
2289 H 86.84056468509925 8.56646847424011 106.71682289834764 H 0.0 **** 0.06
2290 H 88.34652351987063 9.265406262397093 106.0748480866586 H 0.0 **** 0.06
2291 C 82.29941564133412 180.80498365739413 194.54763393540858 C 0.0 **** -0.24
2292 H 82.39736425224623 181.83738753201956 194.20990405836355 H 0.0 **** 0.06
2293 H 81.53939423898726 180.75015629343267 195.32789260245585 H 0.0 **** 0.06
2294 H 83.25417309994162 180.46183518725175 194.9454372161154 H 0.0 **** 0.06
2295 H 82.00683952543199 180.17402417222178 193.70870099932336 H 0.0 **** 0.06
2296 C 141.91096476360826 72.5553734707825 105.33980048603559 C 0.0 **** -0.24
2297 H 142.53774337991797 71.71472372154516 105.04069061109186 H 0.0 **** 0.06
2298 H 141.85858887485796 72.60106225585797 106.42704766037343 H 0.0 **** 0.06
2299 H 140.90819024247452 72.4223808871913 104.9328639041766 H 0.0 **** 0.06
2300 H 142.33937577951673 73.48172227709513 104.95674953386356 H 0.0 **** 0.06
2301 C 181.0417427338693 201.20376064418383 18.059489020403305 C 0.0 **** -0.24
2302 H 180.87735942940833 201.78409706058795 18.967626629387212 H 0.0 **** 0.06
2303 H 182.04317981610689 200.77236449407616 18.08145016063338 H 0.0 **** 0.06
2304 H 180.9440759697239 201.85365114592537 17.189709346662113 H 0.0 **** 0.06
2305 H 180.30303647170734 200.40364332510677 18.000867427951277 H 0.0 **** 0.06
2306 C 184.14359616390527 24.45444298335545 201.85294876789064 C 0.0 **** -0.24
2307 H 183.23074966122334 24.54975901982408 201.26543600807395 H 0.0 **** 0.06
2308 H 184.5690746952527 25.442216638537957 202.02723400888843 H 0.0 **** 0.06
2309 H 184.86088506371058 23.839307065775472 201.31028260755755 H 0.0 **** 0.06
2310 H 183.91169041062042 23.983856608663984 202.80920310043376 H 0.0 **** 0.06
2311 C 181.34627880090056 21.498432810462432 201.83427981192798 C 0.0 **** -0.24
2312 H 180.8554677433799 20.562122956795477 202.1009003471833 H 0.0 **** 0.06
2313 H 182.2485611474324 21.619138282013665 202.4345155219396 H 0.0 **** 0.06
2314 H 180.66853688023716 22.330304267485587 202.02355445050125 H 0.0 **** 0.06
2315 H 181.61314348170444 21.479407585356583 200.7771291900682 H 0.0 **** 0.06
2316 C 117.41513011082496 146.55309884851886 164.97379821684225 C 0.0 **** -0.24
2317 H 118.21967138223518 147.24063488990907 164.71523942326226 H 0.0 **** 0.06
2318 H 116.48143792733602 147.10687617883139 165.070440372709 H 0.0 **** 0.06
2319 H 117.64609010919516 146.06168315546154 165.91905544982683 H 0.0 **** 0.06
2320 H 117.31308955620368 145.80282695415207 164.189113590729 H 0.0 **** 0.06
2321 C 31.823615630680223 113.26200425884916 142.80338535973056 C 0.0 **** -0.24
2322 H 32.8291063036408 113.00403453553132 142.47335924325796 H 0.0 **** 0.06
2323 H 31.45757545381656 114.11075017249469 142.22439475118665 H 0.0 **** 0.06
2324 H 31.844922594082647 113.52555099328517 143.86104280726596 H 0.0 **** 0.06
2325 H 31.162083223070965 112.40819111338213 142.65511826462563 H 0.0 **** 0.06
2326 C 60.97050432890842 24.033760651756637 97.36753810701843 C 0.0 **** -0.24
2327 H 61.71866811413366 24.759567341285546 97.04873763986787 H 0.0 **** 0.06
2328 H 61.330655462526934 23.026178710444 97.16142183524956 H 0.0 **** 0.06
2329 H 60.0420960165913 24.207049187838834 96.82304455211239 H 0.0 **** 0.06
2330 H 60.789823279661135 24.144342877943586 98.4370441036228 H 0.0 **** 0.06
2331 C 152.42195771346985 148.8980176927048 120.45832278832118 C 0.0 **** -0.24
2332 H 153.001744565284 149.81974201833407 120.40902155478916 H 0.0 **** 0.06
2333 H 152.4887670430938 148.3761294815966 119.50335296836191 H 0.0 **** 0.06
2334 H 151.3798743536205 149.13399566978666 120.67178891367159 H 0.0 **** 0.06
2335 H 152.81965428114836 148.2618641693354 121.24906881072157 H 0.0 **** 0.06
2336 C 199.8639574207079 40.328007845090184 60.875937129043905 C 0.0 **** -0.24
2337 H 199.14543442523498 39.529312469506024 61.059514183871244 H 0.0 **** 0.06
2338 H 199.33094729513613 41.24965698820233 60.64407901291263 H 0.0 **** 0.06
2339 H 200.5028015331535 40.055732791656496 60.034729864366426 H 0.0 **** 0.06
2340 H 200.47767941959177 40.47609044297208 61.7642428093273 H 0.0 **** 0.06
2341 C 135.57965103465943 215.38178842414325 2.076709122645781 C 0.0 **** -0.24
2342 H 135.9394970012441 214.49186418750938 2.594074455182316 H 0.0 **** 0.06
2343 H 136.36512873445827 215.76393074925434 1.4235382497493916 H 0.0 **** 0.06
2344 H 135.31197591275998 216.14396069167168 2.808597503706025 H 0.0 **** 0.06
2345 H 134.70359613571924 215.12583457604538 1.4807522625135903 H 0.0 **** 0.06
2346 C 84.79779664308626 80.479160358074 202.78909618115756 C 0.0 **** -0.24
2347 H 84.53497187760786 79.56236195925628 202.2610024568802 H 0.0 **** 0.06
2348 H 85.58809343321985 80.99742855946717 202.2453644424583 H 0.0 **** 0.06
2349 H 85.14551860214749 80.2332075367964 203.79196345519946 H 0.0 **** 0.06
2350 H 83.92026854805812 81.1228566738602 202.85607114232033 H 0.0 **** 0.06
2351 C 104.89933074391602 151.19849301388047 110.64895043860052 C 0.0 **** -0.24
2352 H 104.94296914738094 150.92180520440922 111.70259397004388 H 0.0 **** 0.06
2353 H 105.89349422376812 151.109163195762 110.2100639952529 H 0.0 **** 0.06
2354 H 104.5521490560467 152.22691555389957 110.55765934010385 H 0.0 **** 0.06
2355 H 104.2102001845143 150.53366395575966 110.12791441595625 H 0.0 **** 0.06
2356 C 71.90021151869645 10.394618116841457 161.16896304792854 C 0.0 **** -0.24
2357 H 71.41656866132008 11.02791814805542 161.91320884525055 H 0.0 **** 0.06
2358 H 71.65491647079314 10.757751662536265 160.17053702789696 H 0.0 **** 0.06
2359 H 71.54751013997792 9.36949824509783 161.2797426180365 H 0.0 **** 0.06
2360 H 72.98012701853766 10.42549987270786 161.3128204878215 H 0.0 **** 0.06
2361 C 63.114271217045 110.9707316849552 76.41443358621632 C 0.0 **** -0.24
2362 H 62.15301681634588 111.4849206099645 76.40737178138227 H 0.0 **** 0.06
2363 H 63.408756583377794 110.73744280634035 75.39101196627752 H 0.0 **** 0.06
2364 H 63.02824673327771 110.04764756566432 76.98772813040028 H 0.0 **** 0.06
2365 H 63.86618489830525 111.61318579925957 76.8726962445345 H 0.0 **** 0.06
2366 C 12.820703059052818 131.28469030478402 186.1540203633768 C 0.0 **** -0.24
2367 H 13.644458260514568 131.80494732744103 185.66590344617498 H 0.0 **** 0.06
2368 H 12.851215591938171 131.48257656676554 187.22650168566926 H 0.0 **** 0.06
2369 H 12.913036450256982 130.21328742026373 185.9803323814746 H 0.0 **** 0.06
2370 H 11.87413498287998 131.63977091606625 185.7457278398837 H 0.0 **** 0.06
2371 C 194.23148891235948 212.51068145789145 43.18085754964778 C 0.0 **** -0.24
2372 H 193.71808579775043 211.72967573326804 42.61874238279546 H 0.0 **** 0.06
2373 H 193.7870146680802 213.47851771935098 42.94645453645512 H 0.0 **** 0.06
2374 H 195.28651054133192 212.51946731496008 42.908809223478954 H 0.0 **** 0.06
2375 H 194.13273477693923 212.31366950294964 44.24874521292287 H 0.0 **** 0.06
2376 C 207.9142657305261 191.30561694550357 153.40036987137825 C 0.0 **** -0.24
2377 H 208.2813856192535 190.3371047090538 153.0601828950147 H 0.0 **** 0.06
2378 H 208.4341648313795 191.58913771036077 154.315980079413 H 0.0 **** 0.06
2379 H 206.84402144711348 191.2390246165288 153.59512809810383 H 0.0 **** 0.06
2380 H 208.09819407111075 192.05429253755312 152.6304079602886 H 0.0 **** 0.06
2381 C 63.31096783588792 116.02418279687951 124.66155118347929 C 0.0 **** -0.24
2382 H 63.225992225920365 116.12099231410464 123.57979881932626 H 0.0 **** 0.06
2383 H 62.903090099798106 115.06320874618474 124.97390635162476 H 0.0 **** 0.06
2384 H 62.75390601819261 116.82874893069392 125.1434812974281 H 0.0 **** 0.06
2385 H 64.35986192166354 116.08548342194028 124.95045351120568 H 0.0 **** 0.06
2386 C 63.0536431235559 98.65558215613221 95.80129932067804 C 0.0 **** -0.24
2387 H 62.45837239720436 98.12374836701237 95.0590125020261 H 0.0 **** 0.06
2388 H 62.918436631785426 99.7298541948265 95.67423660141587 H 0.0 **** 0.06
2389 H 64.10588807490319 98.4027978049388 95.67138100384638 H 0.0 **** 0.06
2390 H 62.731279713702804 98.36464975275341 96.80067026869894 H 0.0 **** 0.06
2391 C 61.81883215328918 42.7935196320052 157.91364081075073 C 0.0 **** -0.24
2392 H 61.43394408410526 43.19099732141132 156.9737244197031 H 0.0 **** 0.06
2393 H 61.40939612175296 41.79764683286578 158.0811807461601 H 0.0 **** 0.06
2394 H 61.52466103041782 43.45049394248332 158.73291931283 H 0.0 **** 0.06
2395 H 62.90615473492693 42.73747539475909 157.86495017342628 H 0.0 **** 0.06
2396 C 115.12398843028706 82.36265756051831 33.283955365082846 C 0.0 **** -0.24
2397 H 115.630688357358 83.31505401351215 33.444971961987974 H 0.0 **** 0.06
2398 H 114.15795305079763 82.5418813079189 32.81170158254352 H 0.0 **** 0.06
2399 H 114.97372579654598 81.86469900792717 34.241734334223764 H 0.0 **** 0.06
2400 H 115.7336221656239 81.73194326190692 32.63797216408422 H 0.0 **** 0.06
2401 C 210.2649600669485 131.73294629314933 205.21241506843842 C 0.0 **** -0.24
2402 H 209.6195164969103 131.54156430004508 204.35464721970703 H 0.0 **** 0.06
2403 H 210.70183056922224 130.7944584655927 205.55413703625783 H 0.0 **** 0.06
2404 H 209.67760720422382 132.17545707167113 206.0170118391461 H 0.0 **** 0.06
2405 H 211.05985104055299 132.41996123218917 204.92251862739863 H 0.0 **** 0.06
2406 C 25.445563782509055 27.55303548980541 140.42580449567185 C 0.0 **** -0.24
2407 H 24.406472263611192 27.58370611739558 140.7518938173277 H 0.0 **** 0.06
2408 H 25.74681297916152 26.51739953953988 140.26736131440833 H 0.0 **** 0.06
2409 H 26.07899548386621 28.002713107779883 141.19115897243017 H 0.0 **** 0.06
2410 H 25.55041563723151 28.109576425673822 139.49486174781697 H 0.0 **** 0.06
2411 C 9.53926506665016 77.7876966232515 8.407333497128462 C 0.0 **** -0.24
2412 H 8.57871348219561 78.15755637640918 8.048805183757736 H 0.0 **** 0.06
2413 H 9.852016307992415 76.93937285593323 7.797903766535455 H 0.0 **** 0.06
2414 H 9.441763184787987 77.47371782258882 9.44667166923574 H 0.0 **** 0.06
2415 H 10.283840386845242 78.5811691519613 8.335312016779596 H 0.0 **** 0.06
2416 C 85.72668936964635 191.1829725671878 202.9014179962191 C 0.0 **** -0.24
2417 H 84.75562525919037 191.3063449441114 203.38131787455612 H 0.0 **** 0.06
2418 H 85.70919725674918 191.656348415325 201.91931694093634 H 0.0 **** 0.06
2419 H 85.94423965766993 190.12063946770246 202.78928236165092 H 0.0 **** 0.06
2420 H 86.49674004290267 191.6485944157398 203.51604827703989 H 0.0 **** 0.06
2421 C 16.624961109007543 174.11153378741716 74.19895186560895 C 0.0 **** -0.24
2422 H 16.41541072750117 174.376951653555 75.23562690954442 H 0.0 **** 0.06
2423 H 15.686617723491608 174.0023834884292 73.65497572338977 H 0.0 **** 0.06
2424 H 17.173254837689427 173.16964916441927 74.16954965870421 H 0.0 **** 0.06
2425 H 17.224855315101806 174.8956943327019 73.73732613670232 H 0.0 **** 0.06
2426 C 194.9082119149498 174.8957377906073 161.60808110941355 C 0.0 **** -0.24
2427 H 194.26609028937477 174.03113042732514 161.77308730590596 H 0.0 **** 0.06
2428 H 195.92490281482202 174.5583664538306 161.40285109877664 H 0.0 **** 0.06
2429 H 194.90774460111373 175.52450533906068 162.4982795609962 H 0.0 **** 0.06
2430 H 194.53693034190258 175.46794309487663 160.7582904244452 H 0.0 **** 0.06
2431 C 185.76928818805288 166.41029052603974 82.08977389291158 C 0.0 **** -0.24
2432 H 184.88811705015297 166.88055635466728 81.65503881556697 H 0.0 **** 0.06
2433 H 185.73363125959838 165.33569228494943 81.91237792287711 H 0.0 **** 0.06
2434 H 185.78985990810344 166.60103391339717 83.1638776783517 H 0.0 **** 0.06
2435 H 186.66609560820223 166.82615546956342 81.63071950202914 H 0.0 **** 0.06
2436 C 200.5601982498178 17.248635319838485 198.80294454551847 C 0.0 **** -0.24
2437 H 200.8545603030064 17.670419103491554 197.84273491637964 H 0.0 **** 0.06
2438 H 201.2780233101788 16.483529784679845 199.0991705481677 H 0.0 **** 0.06
2439 H 199.56880788975346 16.802385514571498 198.71599383226544 H 0.0 **** 0.06
2440 H 200.53858656375766 18.037936172105674 199.5550025568621 H 0.0 **** 0.06
2441 C 87.2678049364506 13.202622665414765 171.27901680990186 C 0.0 **** -0.24
2442 H 88.21095644231235 12.741458359719957 171.5719192766941 H 0.0 **** 0.06
2443 H 86.61489373682366 13.277023850697617 172.14963991704116 H 0.0 **** 0.06
2444 H 86.78675304080843 12.59202905187803 170.51560955867535 H 0.0 **** 0.06
2445 H 87.4579864973212 14.199199788412471 170.88154337025642 H 0.0 **** 0.06
2446 C 55.72915479187952 208.27323957727316 124.72464291398354 C 0.0 **** -0.24
2447 H 55.067917795701575 208.77444750655957 124.0176193026682 H 0.0 **** 0.06
2448 H 56.76653790402223 208.4662908573028 124.45058338392572 H 0.0 **** 0.06
2449 H 55.54021399867757 207.19959251922324 124.70054886432366 H 0.0 **** 0.06
2450 H 55.54113965608755 208.652711128762 125.72866371814156 H 0.0 **** 0.06
2451 C 198.43507137802337 140.10253314228333 104.77552797897498 C 0.0 **** -0.24
2452 H 199.23286351512604 139.43043016531078 105.09179121257309 H 0.0 **** 0.06
2453 H 197.49415694470903 139.78828443534155 105.22839101997324 H 0.0 **** 0.06
2454 H 198.3438368972139 140.07248240006658 103.68924377198921 H 0.0 **** 0.06
2455 H 198.66952597884745 141.11856123188966 105.09176378359716 H 0.0 **** 0.06
2456 C 34.204095976762915 1.564751318709341 89.39057720912415 C 0.0 **** -0.24
2457 H 33.99658491142708 1.5238343211534016 90.45937797457948 H 0.0 **** 0.06
2458 H 33.72399418567716 2.4436403922062198 88.96098392119491 H 0.0 **** 0.06
2459 H 33.81527972926588 0.6666022806425644 88.91083210376848 H 0.0 **** 0.06
2460 H 35.28160135743917 1.6237822550683347 89.23270491180342 H 0.0 **** 0.06
2461 C 46.23622367403536 54.98404856365164 43.45831108255045 C 0.0 **** -0.24
2462 H 45.82137791250739 55.41839801325443 44.368346631476044 H 0.0 **** 0.06
2463 H 47.324878798534755 55.03989193957108 43.492962163782465 H 0.0 **** 0.06
2464 H 45.870928358595506 55.5386873124321 42.59299879394487 H 0.0 **** 0.06
2465 H 45.92702620780152 53.942134459359636 43.379083233843275 H 0.0 **** 0.06
2466 C 63.103504002158786 154.7727154065759 184.16716753258683 C 0.0 **** -0.24
2467 H 63.55186403701492 153.79832443758744 184.3625867350499 H 0.0 **** 0.06
2468 H 62.68372410286747 154.78431357981157 183.16133481573712 H 0.0 **** 0.06
2469 H 63.865262582839875 155.54693432728897 184.25262539029666 H 0.0 **** 0.06
2470 H 62.312214203822236 154.9590005173195 184.89348595719878 H 0.0 **** 0.06
2471 C 193.91271639170867 167.80984155124693 16.23946218905556 C 0.0 **** -0.24
2472 H 192.88211298540645 168.09372703725236 16.02481177933855 H 0.0 **** 0.06
2473 H 194.5588952327346 168.151655331366 15.430726516870834 H 0.0 **** 0.06
2474 H 193.9795977658937 166.72575098009787 16.326752733545746 H 0.0 **** 0.06
2475 H 194.2282445127176 168.27018646327593 17.175908508203705 H 0.0 **** 0.06
2476 C 197.8252900292948 31.17299161759982 123.12466215941312 C 0.0 **** -0.24
2477 H 197.48531218304814 30.89707282313836 124.12266667506309 H 0.0 **** 0.06
2478 H 197.0922382666409 31.83279049228733 122.66087051459662 H 0.0 **** 0.06
2479 H 197.94090037283317 30.27407062075909 122.51955273315404 H 0.0 **** 0.06
2480 H 198.78373542531716 31.687246599354864 123.19738339207312 H 0.0 **** 0.06
2481 C 8.759037245980949 70.396642414732 10.064917141132767 C 0.0 **** -0.24
2482 H 9.139702511094526 70.61085157841147 11.063397246537164 H 0.0 **** 0.06
2483 H 8.377593173580522 69.37520919549782 10.032967735988109 H 0.0 **** 0.06
2484 H 9.563038777108204 70.50716489559555 9.33722802008488 H 0.0 **** 0.06
2485 H 7.955077005865348 71.09290911153293 9.826592251298678 H 0.0 **** 0.06
2486 C 24.110256953268333 28.200090591597146 90.56753312790532 C 0.0 **** -0.24
2487 H 25.19372192668129 28.09448593749974 90.50356076914501 H 0.0 **** 0.06
2488 H 23.760059387268086 27.778164750369 91.51016264404946 H 0.0 **** 0.06
2489 H 23.644100696916965 27.671690717016162 89.73569296295061 H 0.0 **** 0.06
2490 H 23.84554055362277 29.256465004463593 90.52097708221304 H 0.0 **** 0.06
2491 C 38.24318007652681 80.95910558095348 130.86129081335537 C 0.0 **** -0.24
2492 H 38.53675731681585 80.84178895103976 129.81781423924662 H 0.0 **** 0.06
2493 H 37.60116820271719 80.12762836929294 131.152654061764 H 0.0 **** 0.06
2494 H 37.70081259692961 81.89714255429733 130.9825562324936 H 0.0 **** 0.06
2495 H 39.13345102505315 80.96936517611557 131.48979977028853 H 0.0 **** 0.06
2496 C 117.40029339997373 182.72624002273625 203.98992418016525 C 0.0 **** -0.24
2497 H 117.52532461223969 183.74835556132115 203.6338397207384 H 0.0 **** 0.06
2498 H 116.38185193804922 182.59081315001555 204.35550550663496 H 0.0 **** 0.06
2499 H 118.10628106985799 182.5342507782894 204.7977550242743 H 0.0 **** 0.06
2500 H 117.58721464149629 182.03126124445612 203.1706805651806 H 0.0 **** 0.06
2501 C 38.71474392792015 143.5824774955832 55.49688316311807 C 0.0 **** -0.24
2502 H 39.1603825760169 143.96520625464905 54.578398520399105 H 0.0 **** 0.06
2503 H 38.29063675291508 142.5955425279402 55.31007411001059 H 0.0 **** 0.06
2504 H 37.92744470273158 144.25949261917498 55.82819508056593 H 0.0 **** 0.06
2505 H 39.47936754270677 143.5092464068918 56.26899069392829 H 0.0 **** 0.06
2506 C 197.3872226539453 96.96272624833813 56.11264605246939 C 0.0 **** -0.24
2507 H 196.47540567129508 96.93810662841952 56.70980332637754 H 0.0 **** 0.06
2508 H 197.8734674579449 95.98788964720933 56.15256762896493 H 0.0 **** 0.06
2509 H 198.06078679084212 97.72230306913372 56.51016278544229 H 0.0 **** 0.06
2510 H 197.13687012979813 97.20302439561283 55.079853946871324 H 0.0 **** 0.06
2511 C 122.34644310636277 25.4929440290027 166.2845239451866 C 0.0 **** -0.24
2512 H 121.83785776191333 24.56330818406559 166.02933131553135 H 0.0 **** 0.06
2513 H 122.65739970944979 25.461720717618306 167.3288175985447 H 0.0 **** 0.06
2514 H 121.66743373023736 26.33137461892987 166.13208531707207 H 0.0 **** 0.06
2515 H 123.22259811624112 25.61408940463012 165.64751504939463 H 0.0 **** 0.06
2516 C 52.63506631886361 150.05318820716184 105.4062986091542 C 0.0 **** -0.24
2517 H 52.2511373798726 150.8608506827385 104.78348079962232 H 0.0 **** 0.06
2518 H 51.88358172663919 149.26747391678845 105.48692804706643 H 0.0 **** 0.06
2519 H 52.86695710748958 150.4383409073041 106.39944220515464 H 0.0 **** 0.06
2520 H 53.540088202987846 149.64469789911442 104.95443665220064 H 0.0 **** 0.06
2521 C 207.56085327669496 114.15107487291118 177.4942938463705 C 0.0 **** -0.24
2522 H 208.28715823294266 114.26597799114984 178.2987641796202 H 0.0 **** 0.06
2523 H 206.59635941172976 114.54415661379204 177.81695540146544 H 0.0 **** 0.06
2524 H 207.45831228241695 113.09456172058714 177.2455661869626 H 0.0 **** 0.06
2525 H 207.9023820290422 114.69955484751495 176.61648921894732 H 0.0 **** 0.06
2526 C 200.86198399042598 40.857359726957355 153.82686209109545 C 0.0 **** -0.24
2527 H 201.92072961064412 40.80909501464134 154.07944939958793 H 0.0 **** 0.06
2528 H 200.32056611790654 41.362927461411246 154.62686340394578 H 0.0 **** 0.06
2529 H 200.47096761940907 39.847477949793344 153.70489438052925 H 0.0 **** 0.06
2530 H 200.73642718450094 41.410594621093836 152.89625219802292 H 0.0 **** 0.06
2531 C 81.260846961441 136.56605534114834 72.17768714081357 C 0.0 **** -0.24
2532 H 82.11065918629514 136.11536031407962 72.68877645286075 H 0.0 **** 0.06
2533 H 80.37373933267408 136.48457005582668 72.80629779210297 H 0.0 **** 0.06
2534 H 81.08714960569792 136.04701056623838 71.23474340050201 H 0.0 **** 0.06
2535 H 81.47183972109686 137.6172804284485 71.98093091778877 H 0.0 **** 0.06
2536 C 161.7940726143494 1.3687037080366835 176.9488655869713 C 0.0 **** -0.24
2537 H 161.86743911543186 2.0517845363586176 177.79495486764114 H 0.0 **** 0.06
2538 H 162.79595905220916 1.0833469763276753 176.62563151576956 H 0.0 **** 0.06
2539 H 161.27345943732476 1.861992410844401 176.12817300813492 H 0.0 **** 0.06
2540 H 161.24096024041938 0.47831725587626295 177.24821122017244 H 0.0 **** 0.06
2541 C 200.38901010768276 213.35252119384313 19.587784318850424 C 0.0 **** -0.24
2542 H 199.52211812364965 213.037197727016 20.169588030064602 H 0.0 **** 0.06
2543 H 200.3100114936545 212.95787427327502 18.57531498775046 H 0.0 **** 0.06
2544 H 201.29748359046204 212.9739712043142 20.057095501654544 H 0.0 **** 0.06
2545 H 200.42494688874592 214.44192671997496 19.552142973778018 H 0.0 **** 0.06
2546 C 141.7040902958239 53.804341601814386 186.69429656366196 C 0.0 **** -0.24
2547 H 141.7048425810753 53.31734467907803 185.71914551500544 H 0.0 **** 0.06
2548 H 141.58767762842433 54.880352653139155 186.56195814186856 H 0.0 **** 0.06
2549 H 142.64660649104883 53.600776864630205 187.20264463114248 H 0.0 **** 0.06
2550 H 140.87785620795887 53.41988662205432 187.29181788297961 H 0.0 **** 0.06
2551 C 46.53769764135711 150.08911404735346 46.27824712192648 C 0.0 **** -0.24
2552 H 46.626199684359946 149.8619443774591 47.3409509741719 H 0.0 **** 0.06
2553 H 45.62565923304513 149.63795902940802 45.885321866885704 H 0.0 **** 0.06
2554 H 47.40070474582507 149.68506329520596 45.748338755784175 H 0.0 **** 0.06
2555 H 46.49841310787842 151.16924817136027 46.13934742258158 H 0.0 **** 0.06
2556 C 138.58511005628878 57.932950189487926 178.41158881365442 C 0.0 **** -0.24
2557 H 138.5568225622834 57.27598927748181 177.54208589816554 H 0.0 **** 0.06
2558 H 139.37044282738879 58.67794765635131 178.27758740632555 H 0.0 **** 0.06
2559 H 138.79110707365027 57.34463524489465 179.30492853967598 H 0.0 **** 0.06
2560 H 137.62372434973042 58.43391296264325 178.51956538132276 H 0.0 **** 0.06
2561 C 11.776319898037443 118.29912033477068 195.27470252111945 C 0.0 **** -0.24
2562 H 11.59761847290001 119.36396019814877 195.425387655827 H 0.0 **** 0.06
2563 H 11.048794656018671 117.9067255674217 194.56322621895697 H 0.0 **** 0.06
2564 H 11.675364395855084 117.77621942848343 196.22445866031887 H 0.0 **** 0.06
2565 H 12.783346686900856 118.15186524639812 194.88380466956266 H 0.0 **** 0.06
2566 C 4.496907237092842 126.60455932621126 196.91202208905622 C 0.0 **** -0.24
2567 H 5.116133271950787 126.54135828857962 196.01719926640016 H 0.0 **** 0.06
2568 H 3.617863861763368 125.97066839263557 196.7914269738282 H 0.0 **** 0.06
2569 H 4.183045038386922 127.6377890213147 197.06380506285814 H 0.0 **** 0.06
2570 H 5.071519065784685 126.26935350326683 197.77616933311563 H 0.0 **** 0.06
2571 C 21.729468750530145 89.97851326311576 200.48863563759363 C 0.0 **** -0.24
2572 H 21.710485347345752 89.93289907948537 199.40004383960436 H 0.0 **** 0.06
2573 H 20.846470247133595 89.47996760456431 200.888653147796 H 0.0 **** 0.06
2574 H 21.73526748238237 91.02028399832813 200.8089311938349 H 0.0 **** 0.06
2575 H 22.626169370604487 89.48005682343279 200.85678277080382 H 0.0 **** 0.06
2576 C 86.84567836846713 20.842528560288997 5.128098368767475 C 0.0 **** -0.24
2577 H 86.8197808722071 19.923218826915445 5.713218075794842 H 0.0 **** 0.06
2578 H 86.07238637490224 20.806946222536567 4.360478975388283 H 0.0 **** 0.06
2579 H 87.82291063894104 20.943918200232247 4.655968759182173 H 0.0 **** 0.06
2580 H 86.66944070644888 21.695017676323886 5.784037184018501 H 0.0 **** 0.06
2581 C 22.2489620085976 203.58874004511785 39.282581849666556 C 0.0 **** -0.24
2582 H 22.95700978660807 202.781466551108 39.09540817149893 H 0.0 **** 0.06
2583 H 21.282102534720423 203.16629417037117 39.5616668354144 H 0.0 **** 0.06
2584 H 22.136631718185868 204.19055327552704 38.38094673936375 H 0.0 **** 0.06
2585 H 22.619339272982984 204.21521696054197 40.093845979304604 H 0.0 **** 0.06
2586 C 13.570918905499411 167.04337741697776 55.048008749188185 C 0.0 **** -0.24
2587 H 14.00504652929908 168.04154908151426 55.026970146840284 H 0.0 **** 0.06
2588 H 14.152720573940769 166.37956508536246 54.407007831723135 H 0.0 **** 0.06
2589 H 12.542891827485164 167.08665160798887 54.687567607161284 H 0.0 **** 0.06
2590 H 13.581836375742398 166.66318016512872 56.069472402198954 H 0.0 **** 0.06
2591 C 18.219431894148272 81.06467364133813 155.61818475519868 C 0.0 **** -0.24
2592 H 18.522251895498 80.81476244334188 156.63523666348397 H 0.0 **** 0.06
2593 H 18.552345426455062 82.07450375720983 155.37789148107709 H 0.0 **** 0.06
2594 H 17.133400341399124 81.01052599039396 155.53941519608406 H 0.0 **** 0.06
2595 H 18.669682920730892 80.35806202640244 154.92073570226427 H 0.0 **** 0.06
2596 C 34.01264068511951 212.2714514565148 26.082414928973435 C 0.0 **** -0.24
2597 H 33.179451270553415 211.5924384248098 25.899303349337202 H 0.0 **** 0.06
2598 H 34.05605125010611 213.0143773192942 25.285770197561817 H 0.0 **** 0.06
2599 H 34.9439704659836 211.7054584834773 26.103173813444855 H 0.0 **** 0.06
2600 H 33.869715535947094 212.77220448210687 27.039326588802226 H 0.0 **** 0.06
2601 C 99.28234418111356 88.62127895372356 113.20312610750999 C 0.0 **** -0.24
2602 H 98.9397743133344 88.11815727201076 112.2989012483972 H 0.0 **** 0.06
2603 H 98.56779385789031 89.3978014449824 113.47946977737352 H 0.0 **** 0.06
2604 H 100.25682300920704 89.07326103805087 113.02041231004189 H 0.0 **** 0.06
2605 H 99.36241918187238 87.8974466216763 114.01381956188003 H 0.0 **** 0.06
2606 C 90.64854443854165 63.90791426326001 177.7463051551349 C 0.0 **** -0.24
2607 H 90.14064270468191 63.805448161598065 178.70571678603636 H 0.0 **** 0.06
2608 H 91.39394266536476 64.70138214886293 177.8134941580429 H 0.0 **** 0.06
2609 H 89.92095509996375 64.15779913533169 176.97492106096655 H 0.0 **** 0.06
2610 H 91.13956109032654 62.96921579015378 177.4926243802278 H 0.0 **** 0.06
2611 C 26.10694834519751 215.72241363116123 106.8919554817735 C 0.0 **** -0.24
2612 H 25.622617400089865 215.2817443629758 106.02082962388886 H 0.0 **** 0.06
2613 H 25.735697236472674 215.2395311593994 107.79679209521112 H 0.0 **** 0.06
2614 H 25.883841111807897 216.7884587020027 106.93095804620896 H 0.0 **** 0.06
2615 H 27.185372372134978 215.57896288603493 106.81935623158154 H 0.0 **** 0.06
2616 C 55.925650817646044 82.562033332236 83.1051157318718 C 0.0 **** -0.24
2617 H 55.99323284977737 83.53365459414171 82.61613830660097 H 0.0 **** 0.06
2618 H 55.559551205646414 82.6933189963829 84.12370853417339 H 0.0 **** 0.06
2619 H 56.911631899745146 82.09902985241054 83.12971661995401 H 0.0 **** 0.06
2620 H 55.23805343852473 81.92436181540047 82.55087391459084 H 0.0 **** 0.06
2621 C 169.3331487790968 100.8595185713912 120.73667594856708 C 0.0 **** -0.24
2622 H 169.59460364076293 101.17215688374019 119.72530371619486 H 0.0 **** 0.06
2623 H 168.65661673058682 100.00695956961748 120.68920331937652 H 0.0 **** 0.06
2624 H 168.84349688662263 101.68357022295926 121.25620173906462 H 0.0 **** 0.06
2625 H 170.23785567940521 100.57727482052776 121.27479584223893 H 0.0 **** 0.06
2626 C 83.9150842030633 196.38967787574114 58.02708105475011 C 0.0 **** -0.24
2627 H 83.98304260329745 196.31122138734509 59.11180791443627 H 0.0 **** 0.06
2628 H 84.53204611431998 195.6177289382001 57.566913717887246 H 0.0 **** 0.06
2629 H 84.26659190902016 197.37233209008122 57.71132137179288 H 0.0 **** 0.06
2630 H 82.87826993149152 196.25810875143725 57.71765761131367 H 0.0 **** 0.06
2631 C 2.472519200787417 144.7863153383342 106.93702466088415 C 0.0 **** -0.24
2632 H 1.7188628365436784 145.38796641515722 106.4286781176046 H 0.0 **** 0.06
2633 H 1.9822060795906964 144.01021572663717 107.524582802848 H 0.0 **** 0.06
2634 H 3.061737939846296 145.42477017941292 107.59642579502749 H 0.0 **** 0.06
2635 H 3.1273689308909525 144.32424383436404 106.19791512796418 H 0.0 **** 0.06
2636 C 1.7684412504281681 215.0165686515509 191.40253748342815 C 0.0 **** -0.24
2637 H 2.5496007383004553 214.32681880014187 191.08245446451122 H 0.0 **** 0.06
2638 H 2.1077624720163612 215.5677738369705 192.27961620909738 H 0.0 **** 0.06
2639 H 0.8678562648555612 214.45473440362304 191.65129259702846 H 0.0 **** 0.06
2640 H 1.5487343249414494 215.7159982780218 190.59535025806488 H 0.0 **** 0.06
2641 C 65.75971750513156 124.30819059006517 13.382123327693932 C 0.0 **** -0.24
2642 H 65.7878478765154 124.98525650723023 14.234834610938663 H 0.0 **** 0.06
2643 H 66.34031231751453 123.41368222043955 13.60873000315138 H 0.0 **** 0.06
2644 H 66.18421360976947 124.80633471903128 12.5097268335943 H 0.0 **** 0.06
2645 H 64.726497287959 124.02912309204014 13.173675578618997 H 0.0 **** 0.06
2646 C 57.66727983222677 203.3425609203321 187.87543073737484 C 0.0 **** -0.24
2647 H 58.162896130358405 203.36019591523115 186.90468121663883 H 0.0 **** 0.06
2648 H 56.59706860566584 203.49865812395083 187.73977407317284 H 0.0 **** 0.06
2649 H 58.07397854249723 204.13458197951186 188.50424226524802 H 0.0 **** 0.06
2650 H 57.837195653527544 202.3771337787608 188.35212265629045 H 0.0 **** 0.06
2651 C 211.005522436891 0.23870657485161928 158.59615880553469 C 0.0 **** -0.24
2652 H 210.5206202091147 -0.6076053940485338 158.11101862550453 H 0.0 **** 0.06
2653 H 211.26532562227152 0.9870969124279156 157.8470430899768 H 0.0 **** 0.06
2654 H 211.9108324438327 -0.10083315459024789 159.09898749750914 H 0.0 **** 0.06
2655 H 210.3264356237508 0.6769885916705789 159.3273353277632 H 0.0 **** 0.06
2656 C 96.06088891642055 55.692939834559496 29.655129529102425 C 0.0 **** -0.24
2657 H 96.25185621379696 54.85881944761206 30.33068842112563 H 0.0 **** 0.06
2658 H 96.94526368811803 55.87374519841984 29.04368629387919 H 0.0 **** 0.06
2659 H 95.83243202840687 56.58544922337322 30.23658937880822 H 0.0 **** 0.06
2660 H 95.21588321056173 55.45168881325823 29.010666629155253 H 0.0 **** 0.06
2661 C 128.54789215940423 71.01401647141144 149.93302774349348 C 0.0 **** -0.24
2662 H 129.0745144924113 71.05257004042896 148.97934242785482 H 0.0 **** 0.06
2663 H 128.16141404039217 70.00760690560303 150.0937747042812 H 0.0 **** 0.06
2664 H 127.72099228557387 71.72395059718339 149.92081016282526 H 0.0 **** 0.06
2665 H 129.23601798532138 71.27228434614433 150.73823808706504 H 0.0 **** 0.06
2666 C 120.01423210031915 162.76993822234215 80.30587835530697 C 0.0 **** -0.24
2667 H 119.44569525448124 162.65903077425864 81.22943589881255 H 0.0 **** 0.06
2668 H 120.72239558814941 161.9452956291549 80.21456442094286 H 0.0 **** 0.06
2669 H 120.55685707546995 163.71489275699503 80.32550473402539 H 0.0 **** 0.06
2670 H 119.33249309483885 162.75965571180936 79.45541063917999 H 0.0 **** 0.06
2671 C 74.75110887131662 30.072408371987223 169.64728322094123 C 0.0 **** -0.24
2672 H 75.41254064203055 29.233466087546034 169.42889593171702 H 0.0 **** 0.06
2673 H 74.11892664233862 30.27073787889158 168.78183121712232 H 0.0 **** 0.06
2674 H 75.34800974698562 30.95602656261005 169.8716609445936 H 0.0 **** 0.06
2675 H 74.12607139037208 29.827480674533078 170.50648734133185 H 0.0 **** 0.06
2676 C 147.5958238578133 208.2536279986617 20.497774972586882 C 0.0 **** -0.24
2677 H 147.85869931459968 209.23003070847602 20.091341249147746 H 0.0 **** 0.06
2678 H 146.51464180682837 208.11966416607524 20.44870134118169 H 0.0 **** 0.06
2679 H 147.92335680661938 208.19202151959098 21.535155293913405 H 0.0 **** 0.06
2680 H 148.085690528464 207.47263314077162 19.914829141923533 H 0.0 **** 0.06
2681 C 91.65011639991268 62.8901238071104 127.85115768346837 C 0.0 **** -0.24
2682 H 91.00481687484954 63.311887353506734 127.08110238894419 H 0.0 **** 0.06
2683 H 91.07475598972404 62.741539277402694 128.7655854787559 H 0.0 **** 0.06
2684 H 92.47601532937274 63.57380402400935 128.04780319601065 H 0.0 **** 0.06
2685 H 92.04464305879604 61.932870025585146 127.50925117120362 H 0.0 **** 0.06
2686 C 148.3683602308398 19.1625446814146 91.15073563911089 C 0.0 **** -0.24
2687 H 147.76739833382828 19.82122295937654 91.77727283031886 H 0.0 **** 0.06
2688 H 147.99007096705873 19.189083728772744 90.1285922750482 H 0.0 **** 0.06
2689 H 148.3104346698948 18.143839946476305 91.53350766139239 H 0.0 **** 0.06
2690 H 149.40631348407578 19.496380264199445 91.16244027289532 H 0.0 **** 0.06
2691 C 33.99134187845357 164.51193742985993 136.62713437873742 C 0.0 **** -0.24
2692 H 34.72571519121823 164.37632823367937 137.4204256880762 H 0.0 **** 0.06
2693 H 34.31493674343295 165.31751861771096 135.96679698223636 H 0.0 **** 0.06
2694 H 33.02606188861746 164.7662911824699 137.06400144439323 H 0.0 **** 0.06
2695 H 33.89977304407047 163.58814690813313 136.05520136658004 H 0.0 **** 0.06
2696 C 127.49113120957573 131.49860101165348 10.883496751023259 C 0.0 **** -0.24
2697 H 127.58852658573606 130.42760681538994 10.70453665388493 H 0.0 **** 0.06
2698 H 128.42943506293227 131.9952927041486 10.634811422552488 H 0.0 **** 0.06
2699 H 127.25562860716217 131.6709511261006 11.933858643159866 H 0.0 **** 0.06
2700 H 126.69176354157334 131.89913410354904 10.261326610837855 H 0.0 **** 0.06
2701 C 100.75499385098563 152.82675353469205 105.97721510992587 C 0.0 **** -0.24
2702 H 100.68292649223345 153.870853424034 105.67185653108938 H 0.0 **** 0.06
2703 H 101.8045647558448 152.54528893231736 106.0642365721478 H 0.0 **** 0.06
2704 H 100.27006674012041 152.19612328175475 105.23261232723898 H 0.0 **** 0.06
2705 H 100.2627873287209 152.6958829444277 106.94091411108472 H 0.0 **** 0.06
2706 C 57.85464831271166 59.94990782786098 39.15129379066792 C 0.0 **** -0.24
2707 H 56.90727855914665 59.948087168319404 38.61255418198067 H 0.0 **** 0.06
2708 H 57.67524205340793 60.187661119437905 40.20074123393931 H 0.0 **** 0.06
2709 H 58.51753335333474 60.69837984630942 38.717649708593314 H 0.0 **** 0.06
2710 H 58.31865668834058 58.96600120288713 39.075089226138886 H 0.0 **** 0.06
2711 C 115.1871618417635 1.394039366980948 211.24335717373526 C 0.0 **** -0.24
2712 H 114.89152121182843 0.8151910495204646 210.3681735442808 H 0.0 **** 0.06
2713 H 114.35554139237354 1.4369519155901287 211.94785920072587 H 0.0 **** 0.06
2714 H 115.45657166526013 2.40393614832864 210.93604470319926 H 0.0 **** 0.06
2715 H 116.04409843756326 0.9174490922121805 211.72023297598258 H 0.0 **** 0.06
2716 C 92.7438123061943 202.2103384449387 165.09296488257286 C 0.0 **** -0.24
2717 H 92.64358437251012 203.2160499824828 165.5012978392428 H 0.0 **** 0.06
2718 H 92.26705205658375 201.4959660290009 165.76431937649667 H 0.0 **** 0.06
2719 H 93.8005756793166 201.96327248487745 164.99083397012305 H 0.0 **** 0.06
2720 H 92.26519834537892 202.16610757850574 164.11460224753472 H 0.0 **** 0.06
2721 C 20.44062947729131 152.83804496507304 9.205269881190276 C 0.0 **** -0.24
2722 H 20.482451625254058 152.19199549087335 8.328257837669028 H 0.0 **** 0.06
2723 H 21.44835605887984 153.16745414600803 9.462543861044338 H 0.0 **** 0.06
2724 H 20.013077754310288 152.28673826497294 10.042801125313872 H 0.0 **** 0.06
2725 H 19.81936756575675 153.70662182388287 8.986445711545244 H 0.0 **** 0.06
2726 C 127.25160521619614 145.25060732713246 199.14480809299988 C 0.0 **** -0.24
2727 H 128.2471210436667 145.2417670763029 199.5887723101538 H 0.0 **** 0.06
2728 H 126.97919639405603 146.27317711546078 198.88317743399585 H 0.0 **** 0.06
2729 H 126.53104636132008 144.8541467365829 199.86017029071036 H 0.0 **** 0.06
2730 H 127.24985486480347 144.63218062605108 198.24726450784826 H 0.0 **** 0.06
2731 C 39.53620415472665 65.2250994400407 132.83289103852695 C 0.0 **** -0.24
2732 H 39.64073617676898 65.78968814481428 133.75847126648154 H 0.0 **** 0.06
2733 H 38.47836539184175 65.09487342136094 132.6051533207177 H 0.0 **** 0.06
2734 H 40.00599204030689 64.24768935879435 132.94900751550887 H 0.0 **** 0.06
2735 H 40.01957551566575 65.76642754325162 132.0206705514247 H 0.0 **** 0.06
2736 C 40.48933316970597 129.9068881793171 68.8879202543891 C 0.0 **** -0.24
2737 H 39.5233509701923 129.66673507416823 69.33308430011726 H 0.0 **** 0.06
2738 H 41.00899827805708 128.98313402170277 68.62990552739716 H 0.0 **** 0.06
2739 H 41.08766855871713 130.4737755188836 69.60148500309238 H 0.0 **** 0.06
2740 H 40.33694328595253 130.50171212748933 67.98740544143837 H 0.0 **** 0.06
2741 C 86.91672831018148 153.73900871517435 192.1172330187524 C 0.0 **** -0.24
2742 H 86.94168393577733 152.94208790775832 192.8614524789658 H 0.0 **** 0.06
2743 H 87.9252951304186 154.1220898065215 191.96287960020538 H 0.0 **** 0.06
2744 H 86.27175614355771 154.54383689492641 192.46949377063584 H 0.0 **** 0.06
2745 H 86.5291943523326 153.3467488719428 191.1776263120018 H 0.0 **** 0.06
2746 C 38.01055621358893 209.89894542720702 198.9709002012932 C 0.0 **** -0.24
2747 H 38.614605715461266 209.34122117853943 198.25532910334329 H 0.0 **** 0.06
2748 H 37.22586885150034 210.4388540910026 198.43974058628558 H 0.0 **** 0.06
2749 H 38.64185150857264 210.60782374951725 199.50484671369685 H 0.0 **** 0.06
2750 H 37.559325518421105 209.2065524469653 199.68125500641014 H 0.0 **** 0.06
2751 C 44.62586789728152 128.17116181750362 203.683703128955 C 0.0 **** -0.24
2752 H 44.04656714481331 127.82969178619192 204.54216629667002 H 0.0 **** 0.06
2753 H 44.540556025495164 129.25461040624145 203.5957986939222 H 0.0 **** 0.06
2754 H 44.24178479942796 127.70188509328977 202.77704073583453 H 0.0 **** 0.06
2755 H 45.671702235287626 127.8975592871924 203.81984391482635 H 0.0 **** 0.06
2756 C 192.2956080818472 23.381100440275418 203.22245162834787 C 0.0 **** -0.24
2757 H 191.24403231123006 23.554358993524488 202.99558824349174 H 0.0 **** 0.06
2758 H 192.6220385352048 24.086422025765387 203.98687347619227 H 0.0 **** 0.06
2759 H 192.89010293679442 23.52247090117885 202.32010225636498 H 0.0 **** 0.06
2760 H 192.42523532647584 22.362887796555015 203.58820825962619 H 0.0 **** 0.06
2761 C 171.08824966915944 70.7631236581484 195.61985725682584 C 0.0 **** -0.24
2762 H 171.698746469939 70.32061789264242 194.8326263866898 H 0.0 **** 0.06
2763 H 170.25109554370616 71.29948604782118 195.17155209586505 H 0.0 **** 0.06
2764 H 171.69364882923588 71.45714176799657 196.2023165647718 H 0.0 **** 0.06
2765 H 170.7087692268899 69.97635262238833 196.27087572543667 H 0.0 **** 0.06
2766 C 89.59609212888238 166.83494498331777 40.376260144629214 C 0.0 **** -0.24
2767 H 89.74293694373908 165.974855904455 41.028531936855586 H 0.0 **** 0.06
2768 H 90.408915139202 166.88260784407532 39.651117293992 H 0.0 **** 0.06
2769 H 89.58741820881387 167.7468950578164 40.972864665212626 H 0.0 **** 0.06
2770 H 88.64661645735545 166.7341890326407 39.851441788353384 H 0.0 **** 0.06
2771 C 134.8716098376409 117.73734330103139 210.71624190602074 C 0.0 **** -0.24
2772 H 135.8933245860843 118.06356596555128 210.5228436737841 H 0.0 **** 0.06
2773 H 134.73856106152135 116.72140203950073 210.34205406193826 H 0.0 **** 0.06
2774 H 134.1743375217494 118.40485689411844 210.21074804515092 H 0.0 **** 0.06
2775 H 134.68079236832716 117.75644658203481 211.78910391473798 H 0.0 **** 0.06
2776 C 59.514238850797 84.73355753700183 101.52057511197887 C 0.0 **** -0.24
2777 H 59.96012005026087 85.33525173413868 100.72837615260954 H 0.0 **** 0.06
2778 H 59.81389430055711 83.69258831955555 101.39729962791017 H 0.0 **** 0.06
2779 H 58.42854176262486 84.80852983666678 101.46542883581913 H 0.0 **** 0.06
2780 H 59.85519179702436 85.09758665815842 102.488894271839 H 0.0 **** 0.06
2781 C 111.68227233836858 182.80912734424822 0.9421792027740139 C 0.0 **** -0.24
2782 H 112.01963210344225 183.7344907654807 1.4106278005969557 H 0.0 **** 0.06
2783 H 110.66646848496704 182.9401019533503 0.5684061027778284 H 0.0 **** 0.06
2784 H 111.69902557021176 182.0042760416302 1.6768967285764802 H 0.0 **** 0.06
2785 H 112.34567746507285 182.55888208541916 0.11466239027532765 H 0.0 **** 0.06
2786 C 2.7418986029764127 40.090060412904535 81.5596237168192 C 0.0 **** -0.24
2787 H 3.2120650744545074 39.696043072244464 82.45973645087668 H 0.0 **** 0.06
2788 H 2.3629901082997193 41.093699550691795 81.757295165237 H 0.0 **** 0.06
2789 H 1.9169200701939673 39.44124094579091 81.26641756675605 H 0.0 **** 0.06
2790 H 3.4761018457312076 40.13075283943989 80.75431577538245 H 0.0 **** 0.06
2791 C 37.32688847993471 30.534644939502584 91.4663068145469 C 0.0 **** -0.24
2792 H 38.39291606742117 30.457238651934944 91.25005325006066 H 0.0 **** 0.06
2793 H 37.03625017066662 29.732768734272355 92.1457522344403 H 0.0 **** 0.06
2794 H 36.76027011615194 30.44994467739278 90.53895217147516 H 0.0 **** 0.06
2795 H 37.11959144981151 31.49862166208385 91.93215118283365 H 0.0 **** 0.06
2796 C 40.8283399861013 104.37845999352747 85.15144690187743 C 0.0 **** -0.24
2797 H 41.20091678884933 105.20191577977992 84.54246149570413 H 0.0 **** 0.06
2798 H 39.73991098181199 104.34622868237444 85.09305512836748 H 0.0 **** 0.06
2799 H 41.13243748619112 104.5276568956801 86.1878320348295 H 0.0 **** 0.06
2800 H 41.240032925704156 103.43907383524741 84.7841490874773 H 0.0 **** 0.06
2801 C 135.21378122221506 55.16677325847127 60.448765002349546 C 0.0 **** -0.24
2802 H 135.55589042941978 54.444000071266544 61.189788857939575 H 0.0 **** 0.06
2803 H 135.84213036226316 56.05662697389056 60.49330564929673 H 0.0 **** 0.06
2804 H 134.17972589776576 55.440959989217106 60.65904426636584 H 0.0 **** 0.06
2805 H 135.27814847973934 54.725318786656686 59.45446125865651 H 0.0 **** 0.06
2806 C 116.01216265841823 190.1779714647279 27.70773778606737 C 0.0 **** -0.24
2807 H 115.14750188717228 190.82136694467658 27.54605248204797 H 0.0 **** 0.06
2808 H 116.53249275630343 190.48831361121609 28.613840140980642 H 0.0 **** 0.06
2809 H 116.68717322472968 190.25616680232486 26.85592304780552 H 0.0 **** 0.06
2810 H 115.68067008341608 189.1449151544167 27.81485677122474 H 0.0 **** 0.06
2811 C 3.771149332964484 153.37089880059705 0.7887860545577752 C 0.0 **** -0.24
2812 H 2.9962607100747363 152.61922261728398 0.9421343156400539 H 0.0 **** 0.06
2813 H 3.9879226281198257 153.45606565507632 -0.27745131721974303 H 0.0 **** 0.06
2814 H 4.674684696661657 153.07439975337485 1.321099205301195 H 0.0 **** 0.06
2815 H 3.4241849315469253 154.33208337960815 1.1672910559945393 H 0.0 **** 0.06
2816 C 91.57730364798103 123.26998569711755 51.89613973885929 C 0.0 **** -0.24
2817 H 90.90599846124154 122.78286091807972 51.18904714980789 H 0.0 **** 0.06
2818 H 92.30675890837243 122.54687442766128 52.26226440022447 H 0.0 **** 0.06
2819 H 90.99917968210211 123.65987258987299 52.73532509844375 H 0.0 **** 0.06
2820 H 92.09507231184462 124.09085038031618 51.3998898820785 H 0.0 **** 0.06
2821 C 38.691451229978796 18.665380161503947 49.584323716961464 C 0.0 **** -0.24
2822 H 39.54288317440364 19.290979755182434 49.312923715670166 H 0.0 **** 0.06
2823 H 38.29206000314562 18.188230326171322 48.689970430252885 H 0.0 **** 0.06
2824 H 37.91952830658083 19.281942869943407 50.04392305229757 H 0.0 **** 0.06
2825 H 39.01468955131608 17.901221457567374 50.29189464345171 H 0.0 **** 0.06
2826 C 40.06512079730098 196.22379223416434 164.02771217496888 C 0.0 **** -0.24
2827 H 40.05767183837622 195.61608896609056 163.12344984036048 H 0.0 **** 0.06
2828 H 39.05214925027201 196.56447918520956 164.24488999156148 H 0.0 **** 0.06
2829 H 40.71471344793105 197.0865053640057 163.88108143313372 H 0.0 **** 0.06
2830 H 40.43573050819896 195.62871847049416 164.86302876976976 H 0.0 **** 0.06
2831 C 183.16020849879527 64.58622083156786 41.763970066146385 C 0.0 **** -0.24
2832 H 183.0242268201379 65.231636345298 40.89579787944146 H 0.0 **** 0.06
2833 H 184.21655236089518 64.55414869064725 42.0313034979783 H 0.0 **** 0.06
2834 H 182.81389558410638 63.580346963104546 41.527049703621515 H 0.0 **** 0.06
2835 H 182.584883732633 64.98138492582217 42.60239055886204 H 0.0 **** 0.06
2836 C 120.24110877126365 208.15922469647418 93.97749109800618 C 0.0 **** -0.24
2837 H 121.13355402339344 208.63856699469446 94.38005360598173 H 0.0 **** 0.06
2838 H 120.39495220253788 207.93519377036603 92.92136681601342 H 0.0 **** 0.06
2839 H 119.38817414033754 208.82784860263752 94.08711636066984 H 0.0 **** 0.06
2840 H 120.0499266924878 207.23327173369915 94.52096757453894 H 0.0 **** 0.06
2841 C 9.20487655821239 156.32992431969666 192.82132940523155 C 0.0 **** -0.24
2842 H 9.960231624181517 156.36617875328227 193.60650294121473 H 0.0 **** 0.06
2843 H 9.575700949612326 155.73577636958623 191.98684597211223 H 0.0 **** 0.06
2844 H 8.987788780603125 157.34249731490945 192.48003338035616 H 0.0 **** 0.06
2845 H 8.294409627552369 155.87650367393468 193.21517943912613 H 0.0 **** 0.06
2846 C 101.30923255317059 169.3114388646655 64.17291181066918 C 0.0 **** -0.24
2847 H 100.26636380494922 169.60740669304116 64.0572529900752 H 0.0 **** 0.06
2848 H 101.49961645634552 168.41753740871832 63.57746380875243 H 0.0 **** 0.06
2849 H 101.51331572127474 169.1001694797423 65.22181429263398 H 0.0 **** 0.06
2850 H 101.95588775842661 170.11943946721374 63.8320332492942 H 0.0 **** 0.06
2851 C 157.30559673631302 49.29142537465651 197.4989165190866 C 0.0 **** -0.24
2852 H 158.3922263224643 49.25795780415979 197.58419968719042 H 0.0 **** 0.06
2853 H 156.99171673446278 48.713005277535785 196.62974468341002 H 0.0 **** 0.06
2854 H 156.98252447003404 50.32578031640338 197.3847618509539 H 0.0 **** 0.06
2855 H 156.85862214787238 48.86799938663006 198.3986260801401 H 0.0 **** 0.06
2856 C 73.62672008224693 85.58788571149142 102.5640177740582 C 0.0 **** -0.24
2857 H 73.12582156859649 85.09201265851442 101.733237591292 H 0.0 **** 0.06
2858 H 73.8316241618328 84.86109768079132 103.35036796379485 H 0.0 **** 0.06
2859 H 72.98498463146886 86.3771953432057 102.95653155304534 H 0.0 **** 0.06
2860 H 74.56363464249033 86.02180914620493 102.21602397965451 H 0.0 **** 0.06
2861 C 205.96440704658247 201.19808694970118 191.22079803767932 C 0.0 **** -0.24
2862 H 207.01071610047057 200.91406199577594 191.3385747175753 H 0.0 **** 0.06
2863 H 205.85819642634456 202.26960710845464 191.3937431482587 H 0.0 **** 0.06
2864 H 205.35654738197462 200.65121000207816 191.94170189521103 H 0.0 **** 0.06
2865 H 205.63422086282122 200.95772931001324 190.2104835242443 H 0.0 **** 0.06
2866 C 100.03906648710607 57.54488101322586 216.67898837495218 C 0.0 **** -0.24
2867 H 100.92633347056785 57.07360892139022 216.25737120831326 H 0.0 **** 0.06
2868 H 99.91412859663644 58.538383457871504 216.2475436339825 H 0.0 **** 0.06
2869 H 100.15184963806222 57.6295221990156 217.75988706090067 H 0.0 **** 0.06
2870 H 99.16267179063003 56.93707190822897 216.45184176732437 H 0.0 **** 0.06
2871 C 101.99199062025036 103.54190264837847 172.5169622714916 C 0.0 **** -0.24
2872 H 102.83287300202886 103.01370328883378 172.0688569574559 H 0.0 **** 0.06
2873 H 101.07138693293416 103.26097502068997 172.00359428714458 H 0.0 **** 0.06
2874 H 102.14658066207772 104.61716228481528 172.42243827790207 H 0.0 **** 0.06
2875 H 101.91540886129661 103.27720563688344 173.57095840123594 H 0.0 **** 0.06
2876 C 39.421535557581535 35.356473159146404 72.86896177000149 C 0.0 **** -0.24
2877 H 38.67279557062102 34.63700724277902 72.53754607427028 H 0.0 **** 0.06
2878 H 40.28566266728245 35.311843432733724 72.206436559354 H 0.0 **** 0.06
2879 H 39.72990801246664 35.11676524192079 73.88588883536973 H 0.0 **** 0.06
2880 H 38.9957006950591 36.36008545071627 72.84468847827812 H 0.0 **** 0.06
2881 C 52.69002817585789 191.06960455737374 180.03795046063 C 0.0 **** -0.24
2882 H 52.30130838138717 191.33721887229947 181.02021652816 H 0.0 **** 0.06
2883 H 53.73796052847956 190.78130812017835 180.12759479011788 H 0.0 **** 0.06
2884 H 52.60407756613604 191.92599345318547 179.36846655219006 H 0.0 **** 0.06
2885 H 52.1167662274287 190.2338977838317 179.63552397205203 H 0.0 **** 0.06
2886 C 123.50467326531701 104.69575308838897 126.90697552563272 C 0.0 **** -0.24
2887 H 124.14169929988704 105.31492354792563 127.53842141129108 H 0.0 **** 0.06
2888 H 122.51372142831595 105.14344401510617 126.84061736307261 H 0.0 **** 0.06
2889 H 123.42454394622565 103.69827922459619 127.33976338327669 H 0.0 **** 0.06
2890 H 123.94014918470016 104.62498668019624 125.90938292081476 H 0.0 **** 0.06
2891 C 199.67417970133255 81.18109381687225 135.16923027236083 C 0.0 **** -0.24
2892 H 199.4296237014292 81.63736589509347 134.20958382499208 H 0.0 **** 0.06
2893 H 198.83275596471006 80.57641719596074 135.50738173850687 H 0.0 **** 0.06
2894 H 199.87773435983402 81.96323913088668 135.9007426432135 H 0.0 **** 0.06
2895 H 200.55553672567356 80.54947829321276 135.05690143943042 H 0.0 **** 0.06
2896 C 118.9871257639909 99.87292190257021 187.62178275850118 C 0.0 **** -0.24
2897 H 119.03173731763262 98.98335043028975 186.99375924339762 H 0.0 **** 0.06
2898 H 119.1947146237613 99.59754787820499 188.65662051276934 H 0.0 **** 0.06
2899 H 117.99350599917786 100.31509335634148 187.55538027440278 H 0.0 **** 0.06
2900 H 119.72957584702424 100.59434917360942 187.2817229249788 H 0.0 **** 0.06
2901 C 95.84663879258032 138.45692268182222 102.3873902067471 C 0.0 **** -0.24
2902 H 95.81832993711076 138.69765327178516 103.44989315780482 H 0.0 **** 0.06
2903 H 95.48609779200244 137.4391190139998 102.23507463145474 H 0.0 **** 0.06
2904 H 96.87079140404639 138.53916263408206 102.02286152112778 H 0.0 **** 0.06
2905 H 95.20977774845464 139.15278209208475 101.8401445138317 H 0.0 **** 0.06
2906 C 12.836314229186968 55.17273398870917 200.11831884101014 C 0.0 **** -0.24
2907 H 13.308643993056705 56.09421491076867 199.7771038788731 H 0.0 **** 0.06
2908 H 12.015603077850102 54.91573101080584 199.44868251369888 H 0.0 **** 0.06
2909 H 12.452397506907701 55.314183972287225 201.12830348367885 H 0.0 **** 0.06
2910 H 13.570809938663032 54.36780232712614 200.11876345594607 H 0.0 **** 0.06
2911 C 9.798605447348905 5.577193688455154 33.82926757991669 C 0.0 **** -0.24
2912 H 9.779138487858177 6.408623013622531 34.53295815815687 H 0.0 **** 0.06
2913 H 8.797547230096995 5.154687654241997 33.73793714636588 H 0.0 **** 0.06
2914 H 10.484095664426945 4.810889996956632 34.19116252471446 H 0.0 **** 0.06
2915 H 10.133152328827123 5.933274506413838 32.855282487993804 H 0.0 **** 0.06
2916 C 40.392334528915626 138.5590538709963 90.85587114578031 C 0.0 **** -0.24
2917 H 40.846805506724564 138.35683650542376 91.82646808974714 H 0.0 **** 0.06
2918 H 41.04635465852034 139.21275353392184 90.27812416810404 H 0.0 **** 0.06
2919 H 39.42740176454542 139.04369948016682 91.00026473561262 H 0.0 **** 0.06
2920 H 40.25101761685289 137.62002676489044 90.32051727668669 H 0.0 **** 0.06
2921 C 168.46576451113103 124.37021825948932 36.62099746998197 C 0.0 **** -0.24
2922 H 169.19904569154875 125.11848404914156 36.31769039704764 H 0.0 **** 0.06
2923 H 167.6635692439702 124.33016840233302 35.88493505501857 H 0.0 **** 0.06
2924 H 168.0553049545647 124.63883516468502 37.594180413110536 H 0.0 **** 0.06
2925 H 168.94828221852424 123.39483259081294 36.68703990970468 H 0.0 **** 0.06
2926 C 37.32973734420415 73.59153854883853 85.6737426979322 C 0.0 **** -0.24
2927 H 36.741036617260335 72.725366927298 85.3713731966917 H 0.0 **** 0.06
2928 H 38.3719709256827 73.43622841945519 85.39612956639604 H 0.0 **** 0.06
2929 H 37.256122903082 73.72177583003842 86.75328857290953 H 0.0 **** 0.06
2930 H 36.9489249515627 74.48129740571027 85.17276742161857 H 0.0 **** 0.06
2931 C 179.5070782416841 155.98259451164324 141.2120749319576 C 0.0 **** -0.24
2932 H 179.43409210629093 154.94019245029307 140.90244919333344 H 0.0 **** 0.06
2933 H 180.51083606519012 156.35349020630701 141.00644239607345 H 0.0 **** 0.06
2934 H 179.30331525359026 156.05854237811837 142.2807178671639 H 0.0 **** 0.06
2935 H 178.7793499895554 156.57687359603972 140.66065125102182 H 0.0 **** 0.06
2936 C 121.59613008887187 164.03644109393667 205.63178663439345 C 0.0 **** -0.24
2937 H 122.53956515300398 163.6407208080077 206.0090198333827 H 0.0 **** 0.06
2938 H 121.78765666617728 164.9391696944892 205.0505398680238 H 0.0 **** 0.06
2939 H 120.94173015933028 164.27482481897152 206.46980516378954 H 0.0 **** 0.06
2940 H 121.11781262105335 163.29007282850318 204.99767943026526 H 0.0 **** 0.06
2941 C 130.18277136327282 166.42214822679267 208.30330210482327 C 0.0 **** -0.24
2942 H 130.01128451146292 167.39053930982243 208.77333413235755 H 0.0 **** 0.06
2943 H 130.81516240436247 165.8124657776885 208.94809665117762 H 0.0 **** 0.06
2944 H 130.67454256394763 166.56653084912364 207.34123304081453 H 0.0 **** 0.06
2945 H 129.22670199308823 165.9191531310862 208.15123151177488 H 0.0 **** 0.06
2946 C 166.83081665640339 211.81881771962043 185.96561248716222 C 0.0 **** -0.24
2947 H 166.45146216471036 211.28500576464876 186.83622840797688 H 0.0 **** 0.06
2948 H 167.50736434446355 211.17046619194923 185.408093274404 H 0.0 **** 0.06
2949 H 167.36778628905955 212.7095866915542 186.2926054527498 H 0.0 **** 0.06
2950 H 165.99777967761867 212.11100457387784 185.3265738624172 H 0.0 **** 0.06
2951 C 27.503780147692368 97.38209145877278 170.37688465388325 C 0.0 **** -0.24
2952 H 28.152117616899034 97.62711641600862 169.5351647206255 H 0.0 **** 0.06
2953 H 27.660595999683395 98.10504416564663 171.1779073265851 H 0.0 **** 0.06
2954 H 27.740608325929372 96.38130747954955 170.7383068178819 H 0.0 **** 0.06
2955 H 26.4625724979404 97.41593080904386 170.05500474140237 H 0.0 **** 0.06
2956 C 154.3482612741721 216.0218724424127 37.15538675993537 C 0.0 **** -0.24
2957 H 154.60835888784476 215.03741585880925 37.54526958218402 H 0.0 **** 0.06
2958 H 155.24755131289317 216.5152653357448 36.78733512283887 H 0.0 **** 0.06
2959 H 153.90374503324244 216.62061859014622 37.95001654106038 H 0.0 **** 0.06
2960 H 153.63279354889357 215.91179253432966 36.34030302854961 H 0.0 **** 0.06
2961 C 143.2474663687558 198.96513271443445 105.88131152488516 C 0.0 **** -0.24
2962 H 142.53421877629484 199.63503515573936 105.40037520964667 H 0.0 **** 0.06
2963 H 144.22411924320113 199.0766588409183 105.41091040507389 H 0.0 **** 0.06
2964 H 142.90676456038346 197.93454677542388 105.77332510768586 H 0.0 **** 0.06
2965 H 143.3228308432195 199.21410094286887 106.93952565414524 H 0.0 **** 0.06
2966 C 181.49376416194224 49.660355683676585 15.315810628295765 C 0.0 **** -0.24
2967 H 181.80076792082852 50.50713490415069 15.928842245240247 H 0.0 **** 0.06
2968 H 181.46902982619773 48.75813984368682 15.927491050150394 H 0.0 **** 0.06
2969 H 182.20284905055183 49.52746850299894 14.499186637947503 H 0.0 **** 0.06
2970 H 180.50027448247351 49.84925115097144 14.907385702744762 H 0.0 **** 0.06
2971 C 107.31717679556459 146.49832961325734 137.52476032749342 C 0.0 **** -0.24
2972 H 106.72156575162711 147.2007424121432 138.10779795955222 H 0.0 **** 0.06
2973 H 107.55840262655931 145.63072039849612 138.139885116556 H 0.0 **** 0.06
2974 H 108.23877438795341 146.98289218508938 137.20220315463672 H 0.0 **** 0.06
2975 H 106.74968424132743 146.1778140043827 136.6512999246239 H 0.0 **** 0.06
2976 C 13.324432073951584 50.80398654158165 200.40221050934343 C 0.0 **** -0.24
2977 H 12.84667014930477 51.743819607464786 200.12706786674318 H 0.0 **** 0.06
2978 H 12.99468866199112 50.50628333414261 201.39775318814856 H 0.0 **** 0.06
2979 H 14.407138207196823 50.932800924965534 200.4015525342031 H 0.0 **** 0.06
2980 H 13.0502400720448 50.03351754969049 199.68159867555835 H 0.0 **** 0.06
2981 C 143.6574548611202 174.50489681886953 34.53854639441698 C 0.0 **** -0.24
2982 H 143.32594144373036 174.55491394594816 33.500928789582474 H 0.0 **** 0.06
2983 H 144.66487375550167 174.08939673331997 34.57834594227131 H 0.0 **** 0.06
2984 H 142.97840006471233 173.86776007175425 35.10540042355615 H 0.0 **** 0.06
2985 H 143.65987692800792 175.50743055096765 34.96739765226013 H 0.0 **** 0.06
2986 C 171.82131244857854 79.0967910042941 45.157828430833774 C 0.0 **** -0.24
2987 H 172.71699737011522 79.71543835228239 45.199362670549476 H 0.0 **** 0.06
2988 H 172.08116961026798 78.06423812969304 45.39270066441247 H 0.0 **** 0.06
2989 H 171.39345230521684 79.14520720711054 44.155658418478026 H 0.0 **** 0.06
2990 H 171.09248067714614 79.46239164196162 45.88082327902612 H 0.0 **** 0.06
2991 C 188.89442332914814 69.62098791347803 187.68882138223728 C 0.0 **** -0.24
2992 H 189.59170581684901 70.11100028890759 188.36917655382234 H 0.0 **** 0.06
2993 H 189.38882361058842 68.77607074034796 187.2098282059105 H 0.0 **** 0.06
2994 H 188.56994776859494 70.33134264777483 186.9287813245113 H 0.0 **** 0.06
2995 H 188.02954874264628 69.2664895349608 188.2491284210601 H 0.0 **** 0.06
2996 C 133.72920562725005 161.4283957240147 127.80411939268964 C 0.0 **** -0.24
2997 H 134.7743478730768 161.6122799076541 128.05405025934658 H 0.0 **** 0.06
2998 H 133.4939777510973 160.3780179053803 127.97956295386467 H 0.0 **** 0.06
2999 H 133.5595360517143 161.66922257348992 126.7550608686197 H 0.0 **** 0.06
3000 H 133.09148889325485 162.05358946877402 128.4296434111654 H 0.0 **** 0.06
3001 C 70.33448091432321 88.27990058942294 191.62607113577943 C 0.0 **** -0.24
3002 H 70.57826810722896 87.53813899014625 192.3856898866534 H 0.0 **** 0.06
3003 H 69.40359222184506 88.00126671712326 191.1313494379715 H 0.0 **** 0.06
3004 H 71.13765896358449 88.32489737969894 190.89085318217772 H 0.0 **** 0.06
3005 H 70.2182212906199 89.25669398389776 192.09624611522742 H 0.0 **** 0.06
3006 C 69.9330582002221 98.10908576277502 125.74233830430911 C 0.0 **** -0.24
3007 H 70.558391861423 97.45197348574017 125.13695295182065 H 0.0 **** 0.06
3008 H 70.1459824687329 97.94090158661213 126.79777398039509 H 0.0 **** 0.06
3009 H 68.8832020935388 97.89412844082439 125.54435438278959 H 0.0 **** 0.06
3010 H 70.14572038471913 99.1476655111742 125.48825555453776 H 0.0 **** 0.06
3011 C 86.32319351197141 195.75153602880104 209.50796011510386 C 0.0 **** -0.24
3012 H 87.30474807498207 196.01821706326217 209.1152095396325 H 0.0 **** 0.06
3013 H 86.24776115778009 194.66704398075547 209.59069525724968 H 0.0 **** 0.06
3014 H 85.5502926535679 196.12008304300778 208.83328722927922 H 0.0 **** 0.06
3015 H 86.19120753426141 196.20214369449417 210.49183082621477 H 0.0 **** 0.06
3016 C 140.52555440264524 213.98642693128951 166.49053457166815 C 0.0 **** -0.24
3017 H 141.5814728714762 214.0838272259689 166.74347233468194 H 0.0 **** 0.06
3018 H 140.1525838392932 213.0268454577385 166.84780545170437 H 0.0 **** 0.06
3019 H 140.40491968571035 214.0450181356126 165.40890456596858 H 0.0 **** 0.06
3020 H 139.96470872331946 214.79344883994713 166.9622176254524 H 0.0 **** 0.06
3021 C 48.56507490223957 5.0570501051231105 140.99128831180394 C 0.0 **** -0.24
3022 H 47.70424938102475 4.585551951922618 141.46609254675815 H 0.0 **** 0.06
3023 H 48.89213514549171 5.905498303483242 141.59378264203417 H 0.0 **** 0.06
3024 H 48.28724709974324 5.402854326000686 139.99575815889546 H 0.0 **** 0.06
3025 H 49.3765886607342 4.333652345460244 140.91141190686824 H 0.0 **** 0.06
3026 C 135.00796563103006 140.40640292339128 107.05546984573574 C 0.0 **** -0.24
3027 H 135.2089712686398 139.61745921128255 107.78025511754053 H 0.0 **** 0.06
3028 H 134.40466175517042 141.18428943989926 107.52411272443017 H 0.0 **** 0.06
3029 H 134.46943278589384 139.98946653387515 106.20515605784966 H 0.0 **** 0.06
3030 H 135.95133572448805 140.83388172623017 106.71486320068989 H 0.0 **** 0.06
3031 C 175.56587265503592 91.46500544808974 135.28883153159717 C 0.0 **** -0.24
3032 H 175.26671839344837 90.46324833928922 135.59750540898716 H 0.0 **** 0.06
3033 H 175.1680184507078 92.19554542257187 135.9923317049292 H 0.0 **** 0.06
3034 H 175.17387305233746 91.66927458086649 134.29164318535936 H 0.0 **** 0.06
3035 H 176.6532770132901 91.53015553029194 135.27205816056977 H 0.0 **** 0.06
3036 C 107.52151694419825 107.8665268466335 94.502257990278 C 0.0 **** -0.24
3037 H 107.5042795733313 106.94170527818294 95.07909945916623 H 0.0 **** 0.06
3038 H 107.11545467692036 107.68081143562641 93.50712363531801 H 0.0 **** 0.06
3039 H 108.54839444144932 108.2216130926464 94.4160460514857 H 0.0 **** 0.06
3040 H 106.9174913963526 108.61986155319646 95.00733034467635 H 0.0 **** 0.06
3041 C 202.71768765531084 85.37314043155868 178.5152638483944 C 0.0 **** -0.24
3042 H 201.91155647449708 86.09039666765364 178.36287573207625 H 0.0 **** 0.06
3043 H 203.2507793137549 85.61465765985139 179.4346902156051 H 0.0 **** 0.06
3044 H 203.40740140927298 85.4166592327233 177.67204904965945 H 0.0 **** 0.06
3045 H 202.2996191252863 84.36900626870829 178.5906258731135 H 0.0 **** 0.06
3046 C 144.10768579390435 156.11824188736563 15.419729201673903 C 0.0 **** -0.24
3047 H 143.9341123440205 155.2429313065329 16.04546538955657 H 0.0 **** 0.06
3048 H 143.8432823981434 157.01880148446992 15.97366907867638 H 0.0 **** 0.06
3049 H 143.49378262574066 156.0496585304868 14.521363814390838 H 0.0 **** 0.06
3050 H 145.1602837537119 156.1599310764704 15.137085064353386 H 0.0 **** 0.06
3051 C 121.11142433662611 149.53332790747146 109.58889150441401 C 0.0 **** -0.24
3052 H 120.7186993120665 150.15682427432483 108.78535775808008 H 0.0 **** 0.06
3053 H 120.68304364277888 149.85255271516058 110.53848700974599 H 0.0 **** 0.06
3054 H 122.19684675012884 149.63194778904557 109.62722505122609 H 0.0 **** 0.06
3055 H 120.84749176030094 148.4924730348581 109.40139519104831 H 0.0 **** 0.06
3056 C 58.76155010156157 4.861830925908549 192.5508429832461 C 0.0 **** -0.24
3057 H 59.40524449372839 5.7220977828077935 192.3667136686069 H 0.0 **** 0.06
3058 H 58.40580816847306 4.464005626767019 191.60012911737732 H 0.0 **** 0.06
3059 H 57.90991835431613 5.169556291851443 193.15723773573276 H 0.0 **** 0.06
3060 H 59.3250275230446 4.093024149727867 193.07896083228505 H 0.0 **** 0.06
3061 C 39.88478826688811 43.11915890077097 50.713952664056535 C 0.0 **** -0.24
3062 H 39.418999321957756 42.146056855265215 50.56086709567029 H 0.0 **** 0.06
3063 H 39.40945879989914 43.620344477368775 51.55709028666058 H 0.0 **** 0.06
3064 H 39.763650272171674 43.72504886971177 49.81531586915179 H 0.0 **** 0.06
3065 H 40.94590146714444 42.985149237811896 50.92170565639532 H 0.0 **** 0.06
3066 C 98.73662941954858 3.3987035765973914 15.385856431968591 C 0.0 **** -0.24
3067 H 97.9661715447565 2.657237505988313 15.59915640629103 H 0.0 **** 0.06
3068 H 99.05422662766453 3.8694469465118857 16.316221322097277 H 0.0 **** 0.06
3069 H 98.334863047262 4.155891747131477 14.713149230200429 H 0.0 **** 0.06
3070 H 99.58992407491549 2.9105709592453763 14.915566195588582 H 0.0 **** 0.06
3071 C 134.36051512299855 141.76254283188462 172.53010444305218 C 0.0 **** -0.24
3072 H 134.02643410194196 142.71170837348586 172.949093443192 H 0.0 **** 0.06
3073 H 133.5824259843679 141.35818873736008 171.8822794638209 H 0.0 **** 0.06
3074 H 134.5632580303535 141.06039009882085 173.33813289026511 H 0.0 **** 0.06
3075 H 135.2694309241611 141.9220319055308 171.95055770015495 H 0.0 **** 0.06
3076 C 181.49936591919038 97.79620601949834 144.97225284667775 C 0.0 **** -0.24
3077 H 180.4626218497675 97.5751921811938 144.7169162694516 H 0.0 **** 0.06
3078 H 181.85725052536216 97.06929271430668 145.70173266197077 H 0.0 **** 0.06
3079 H 181.5637189539757 98.79827251912828 145.39600932106288 H 0.0 **** 0.06
3080 H 182.1135517554314 97.74190728460475 144.07341941264758 H 0.0 **** 0.06
3081 C 205.16090712838587 27.090239749957107 174.15726761051815 C 0.0 **** -0.24
3082 H 205.07246682364007 27.29974864423872 175.223192311954 H 0.0 **** 0.06
3083 H 206.1819218639183 26.78237816001092 173.93218032804734 H 0.0 **** 0.06
3084 H 204.91738310764285 27.987985407388123 173.58923335155694 H 0.0 **** 0.06
3085 H 204.4717092400038 26.290860070337374 173.8869094812743 H 0.0 **** 0.06
3086 C 14.510255551132715 24.825187002259554 124.2620845756055 C 0.0 **** -0.24
3087 H 15.171272413808211 23.95903116004557 124.30863478320377 H 0.0 **** 0.06
3088 H 15.100388271509743 25.722979551486333 124.0802136459405 H 0.0 **** 0.06
3089 H 13.976301269132833 24.925110124492477 125.20719479923669 H 0.0 **** 0.06
3090 H 13.79294236543717 24.690659879314467 123.45272101283156 H 0.0 **** 0.06
3091 C 167.42908092016313 44.65258082057727 44.72969564747527 C 0.0 **** -0.24
3092 H 167.94190577171284 45.340841451128256 45.401561789366525 H 0.0 **** 0.06
3093 H 168.0367024440453 44.49765890444513 43.83683705887489 H 0.0 **** 0.06
3094 H 166.46466157778303 45.073476391674205 44.44507591922624 H 0.0 **** 0.06
3095 H 167.27537328682243 43.6987640417982 45.23463985926202 H 0.0 **** 0.06
3096 C 81.16256283347575 151.1202814125844 13.399847613272456 C 0.0 **** -0.24
3097 H 81.36515326893557 150.5012105830495 14.274063586383676 H 0.0 **** 0.06
3098 H 80.22848602243799 150.8006772842669 12.937521047072366 H 0.0 **** 0.06
3099 H 81.97807594015218 151.01486763534268 12.683223253825318 H 0.0 **** 0.06
3100 H 81.07965647219275 152.16258970462985 13.705340773412118 H 0.0 **** 0.06
3101 C 14.121686222469194 64.0645704604099 136.01476007114286 C 0.0 **** -0.24
3102 H 14.045832818745453 65.14808662267689 135.92573694575475 H 0.0 **** 0.06
3103 H 13.193715290710912 63.66960218388169 136.42923583746375 H 0.0 **** 0.06
3104 H 14.95122214586462 63.810710302357805 136.673780016158 H 0.0 **** 0.06
3105 H 14.293663462277735 63.63058886019223 135.02988752470742 H 0.0 **** 0.06
3106 C 46.8642980059704 15.434379193041423 140.7213962048807 C 0.0 **** -0.24
3107 H 46.56934594662397 16.451812435005166 140.46533369050326 H 0.0 **** 0.06
3108 H 47.74017052819352 15.463246369252033 141.3711778475884 H 0.0 **** 0.06
3109 H 47.10438619879665 14.886397810296842 139.81046909807696 H 0.0 **** 0.06
3110 H 46.04405635427128 14.937469734048307 141.2392559885198 H 0.0 **** 0.06
3111 C 162.97225435088166 207.20857871014738 16.468982156325495 C 0.0 **** -0.24
3112 H 163.45248574613385 208.1821769488716 16.381008399341567 H 0.0 **** 0.06
3113 H 162.01898024900396 207.22501168808856 15.93883159866894 H 0.0 **** 0.06
3114 H 162.79956973695357 206.98121637581568 17.520859300896745 H 0.0 **** 0.06
3115 H 163.61665153728808 206.4448319968427 16.033477434491033 H 0.0 **** 0.06
3116 C 144.6710375682734 121.70819670447611 32.242288178135425 C 0.0 **** -0.24
3117 H 145.1251016290595 122.69008768792531 32.10409597988854 H 0.0 **** 0.06
3118 H 143.7352167144236 121.65905170790018 31.686497553774217 H 0.0 **** 0.06
3119 H 144.47422110804825 121.54577783752455 33.302426161923606 H 0.0 **** 0.06
3120 H 145.35250433003768 120.93935711666279 31.877322580032654 H 0.0 **** 0.06
3121 C 148.31801781508688 166.1445399098684 148.14316770540722 C 0.0 **** -0.24
3122 H 149.29895812113568 166.58512749426833 147.96494078964213 H 0.0 **** 0.06
3123 H 147.54297014947053 166.84651846612263 147.8345962077188 H 0.0 **** 0.06
3124 H 148.20724559077087 165.92439055146426 149.20533432372594 H 0.0 **** 0.06
3125 H 148.22367737499894 165.22251320382838 147.57008851335087 H 0.0 **** 0.06
3126 C 153.93412282815802 90.67067139987786 62.39082759569861 C 0.0 **** -0.24
3127 H 154.65563361109787 90.48165835374236 63.18566493415534 H 0.0 **** 0.06
3128 H 153.66154516651437 91.72626863666328 62.39101965891767 H 0.0 **** 0.06
3129 H 153.04299815286186 90.06515308550472 62.557769290779476 H 0.0 **** 0.06
3130 H 154.37599586705454 90.40973531112054 61.4297954985573 H 0.0 **** 0.06
3131 C 129.89748630511758 168.1106185884465 112.56245035070451 C 0.0 **** -0.24
3132 H 129.8097442195421 167.86560975136564 113.62108963707156 H 0.0 **** 0.06
3133 H 128.90386171472477 168.2829746956596 112.14634012860243 H 0.0 **** 0.06
3134 H 130.37355471466594 167.2834630237814 112.03645541946305 H 0.0 **** 0.06
3135 H 130.50077567462677 169.01084674620617 112.44725343485352 H 0.0 **** 0.06
3136 C 126.72659743247983 54.203004276119316 164.1343739098338 C 0.0 **** -0.24
3137 H 127.23899901382084 53.25558366108996 164.29748096563293 H 0.0 **** 0.06
3138 H 127.36661719696706 54.86582530534514 163.55044741457198 H 0.0 **** 0.06
3139 H 126.50519546463728 54.666636982871296 165.0956517142605 H 0.0 **** 0.06
3140 H 125.79715021719626 54.02549185093454 163.5928128706093 H 0.0 **** 0.06
3141 C 7.123950174641152 169.25378649921404 27.75972691596462 C 0.0 **** -0.24
3142 H 6.171461771231037 168.87953659021636 27.38452965704991 H 0.0 **** 0.06
3143 H 6.942329425779803 169.9712631258907 28.55979086736218 H 0.0 **** 0.06
3144 H 7.666512537493475 169.7427833976976 26.949780450990687 H 0.0 **** 0.06
3145 H 7.714760426287313 168.42208642572177 28.142761327869778 H 0.0 **** 0.06
3146 C 197.8212572162796 193.40005820161113 151.43475724511393 C 0.0 **** -0.24
3147 H 197.16096726173194 193.83487079427834 150.68392681584618 H 0.0 **** 0.06
3148 H 198.16585478488764 192.42352765445983 151.09415520846386 H 0.0 **** 0.06
3149 H 197.28044068386936 193.2889170772133 152.37372808505478 H 0.0 **** 0.06
3150 H 198.67998264167414 194.05553501997727 151.5861076749561 H 0.0 **** 0.06
3151 C 24.306136520433967 11.46194104053751 114.80095505217376 C 0.0 **** -0.24
3152 H 24.40720417689201 11.465944485103364 113.71621249401475 H 0.0 **** 0.06
3153 H 25.27665386045308 11.660548090564504 115.25687772972331 H 0.0 **** 0.06
3154 H 23.94284084162264 10.488215422260225 115.12937217216843 H 0.0 **** 0.06
3155 H 23.598196029508884 12.234421706630684 115.10147463629765 H 0.0 **** 0.06
3156 C 40.434140037576526 147.73579077419464 87.40698960823909 C 0.0 **** -0.24
3157 H 40.63624804141327 147.12158350397084 86.52864858920844 H 0.0 **** 0.06
3158 H 40.15253296775961 148.74076842067012 87.09086535439741 H 0.0 **** 0.06
3159 H 41.32945504433292 147.78732305168927 88.02703525967166 H 0.0 **** 0.06
3160 H 39.62025271708359 147.2924502582414 87.97935900569541 H 0.0 **** 0.06
3161 C 18.314073144081064 122.9403121204028 183.0233942285458 C 0.0 **** -0.24
3162 H 17.44902925905268 122.33223041874571 182.75778198030085 H 0.0 **** 0.06
3163 H 19.127921468925777 122.29195504866381 183.34656930853924 H 0.0 **** 0.06
3164 H 18.045886720386065 123.61790418338661 183.83474384247037 H 0.0 **** 0.06
3165 H 18.630859246390273 123.51934491089686 182.15597407159183 H 0.0 **** 0.06
3166 C 99.91321850726119 71.32191460813834 29.2080971386564 C 0.0 **** -0.24
3167 H 99.56723816067525 70.56657235903265 28.502513108937137 H 0.0 **** 0.06
3168 H 99.09326750660576 71.9999785423995 29.446422142741937 H 0.0 **** 0.06
3169 H 100.73296232259834 71.88576907324256 28.762208849212044 H 0.0 **** 0.06
3170 H 100.2605662255856 70.8362619222479 30.11957075550208 H 0.0 **** 0.06
3171 C 121.81086492347013 193.15821236972994 0.20369677483122928 C 0.0 **** -0.24
3172 H 120.7558432897816 193.43296530871913 0.20690918097005095 H 0.0 **** 0.06
3173 H 122.05182832739472 192.65092908850897 -0.730041107579332 H 0.0 **** 0.06
3174 H 122.01417760972718 192.49277691006523 1.0432363819631831 H 0.0 **** 0.06
3175 H 122.4199099004715 194.05718782423799 0.29670472476936993 H 0.0 **** 0.06
3176 C 99.29994047940426 181.03723910850732 104.72596438868997 C 0.0 **** -0.24
3177 H 98.86762198532904 181.90015689227727 105.23180403016836 H 0.0 **** 0.06
3178 H 100.30301299520892 180.8551600411352 105.11032601520141 H 0.0 **** 0.06
3179 H 99.34986289428048 181.23178353698904 103.654296358688 H 0.0 **** 0.06
3180 H 98.67576785888872 180.16112888981598 104.90693287158719 H 0.0 **** 0.06
3181 C 210.61747729851004 190.4894618170506 8.051759651235045 C 0.0 **** -0.24
3182 H 210.52751636774912 189.50354310304607 8.50755067034693 H 0.0 **** 0.06
3183 H 210.7810267274329 191.23572740708823 8.830018869746652 H 0.0 **** 0.06
3184 H 209.70153547992956 190.72410154521594 7.510175949200743 H 0.0 **** 0.06
3185 H 211.45959400800774 190.4935245395468 7.359493745871333 H 0.0 **** 0.06
3186 C 174.38928539507165 168.23721560548523 18.106801183307653 C 0.0 **** -0.24
3187 H 173.92960736768399 167.30111616134803 18.425373145275955 H 0.0 **** 0.06
3188 H 175.30950789101703 168.02343645111853 17.563416271594065 H 0.0 **** 0.06
3189 H 174.61677338037606 168.8449132774782 18.982512259813973 H 0.0 **** 0.06
3190 H 173.69998848689812 168.7775351111365 17.45889245530907 H 0.0 **** 0.06
3191 C 151.6853196754094 49.968293096262016 22.055154885886452 C 0.0 **** -0.24
3192 H 151.61092023692913 48.88134968828433 22.094191982256092 H 0.0 **** 0.06
3193 H 151.2305645406655 50.39510271827419 22.94906564746762 H 0.0 **** 0.06
3194 H 151.16410738565253 50.33606177946376 21.170717720794926 H 0.0 **** 0.06
3195 H 152.73428059397628 50.259258233863875 22.005612930406016 H 0.0 **** 0.06
3196 C 4.55358215353742 28.970549157124395 175.3380637043408 C 0.0 **** -0.24
3197 H 4.118066308970597 28.544805719038308 176.24210386534736 H 0.0 **** 0.06
3198 H 5.626134654651423 29.106116762477185 175.47976305387647 H 0.0 **** 0.06
3199 H 4.089863619373482 29.935204098939565 175.1306725051915 H 0.0 **** 0.06
3200 H 4.380780730330763 28.297234445330275 174.49910119850398 H 0.0 **** 0.06
3201 C 101.89629259374856 57.51526488378482 71.85635413589488 C 0.0 **** -0.24
3202 H 102.92198882632233 57.2467360951552 72.10945029703184 H 0.0 **** 0.06
3203 H 101.23941925608925 57.269380188447855 72.69106323572548 H 0.0 **** 0.06
3204 H 101.5835139134477 56.96087078859321 70.9710124863259 H 0.0 **** 0.06
3205 H 101.84063612300783 58.584705958102234 71.65268704102333 H 0.0 **** 0.06
3206 C 188.63207736920265 196.4978199814675 67.7841461659795 C 0.0 **** -0.24
3207 H 189.0312823671066 197.48235068661143 67.53912207103843 H 0.0 **** 0.06
3208 H 187.67061576408486 196.3632222013115 67.28692470212658 H 0.0 **** 0.06
3209 H 188.49836503386877 196.41790631686177 68.86230799541309 H 0.0 **** 0.06
3210 H 189.32811778164466 195.7301897363667 67.44553031789593 H 0.0 **** 0.06
3211 C 107.15861140809965 160.34465847741808 127.21063216680848 C 0.0 **** -0.24
3212 H 106.32861775146283 159.68257102062185 127.45878510044541 H 0.0 **** 0.06
3213 H 108.08796848893108 159.92044724616864 127.59132415838245 H 0.0 **** 0.06
3214 H 106.99106985082356 161.3210410519452 127.66603094031207 H 0.0 **** 0.06
3215 H 107.22542469836016 160.4544206629771 126.12841667221353 H 0.0 **** 0.06
3216 C 41.3807138946983 135.085126168072 146.36213732967553 C 0.0 **** -0.24
3217 H 40.722076277093606 135.91915783251716 146.11741743195842 H 0.0 **** 0.06
3218 H 40.95143391661968 134.51310427078926 147.18486680569742 H 0.0 **** 0.06
3219 H 42.35773812659046 135.46724927655572 146.65538925431304 H 0.0 **** 0.06
3220 H 41.48904697089121 134.44072101590712 145.48933603926366 H 0.0 **** 0.06
3221 C 154.04058915341955 93.25770619434861 125.05500908372893 C 0.0 **** -0.24
3222 H 154.22751509762986 92.78842150904187 126.02113781230106 H 0.0 **** 0.06
3223 H 154.37608510561893 92.59500767311913 124.25765893331324 H 0.0 **** 0.06
3224 H 154.5846266526089 94.20108656713687 124.99845091901956 H 0.0 **** 0.06
3225 H 152.97247643332264 93.44700415633191 124.94539318258377 H 0.0 **** 0.06
3226 C 109.18381453387535 91.12198630462042 214.1851179312999 C 0.0 **** -0.24
3227 H 109.24009745909767 92.20901209762984 214.24226067860812 H 0.0 **** 0.06
3228 H 109.4062782842412 90.7997401389225 213.16756575277566 H 0.0 **** 0.06
3229 H 108.1810165337596 90.7956226857441 214.45966498659504 H 0.0 **** 0.06
3230 H 109.9094421957161 90.68436857838033 214.8719173098927 H 0.0 **** 0.06
3231 C 211.55412037915008 142.3418014953283 182.96287999065248 C 0.0 **** -0.24
3232 H 210.81065123597227 142.5230439917167 182.18635894431705 H 0.0 **** 0.06
3233 H 211.9552285705152 143.294107840033 183.30973151645858 H 0.0 **** 0.06
3234 H 212.36211078443182 141.732440911011 182.55740578928368 H 0.0 **** 0.06
3235 H 211.08709189848904 141.81776886379663 183.79701447791675 H 0.0 **** 0.06
3236 C 136.40794542991648 30.24000895124891 197.90249328588158 C 0.0 **** -0.24
3237 H 136.35169031815747 31.144089259882747 198.50826245321213 H 0.0 **** 0.06
3238 H 136.95362480704983 30.45243572930525 196.98341330597464 H 0.0 **** 0.06
3239 H 135.3995516315572 29.904254480638883 197.65717706586136 H 0.0 **** 0.06
3240 H 136.92496441426744 29.45958520965013 198.46141573242062 H 0.0 **** 0.06
3241 C 51.192700816220864 111.70979958784001 111.86446575210603 C 0.0 **** -0.24
3242 H 51.23118772657335 111.68710403085178 110.77509032700776 H 0.0 **** 0.06
3243 H 52.20217937845081 111.82522046346283 112.26031446922546 H 0.0 **** 0.06
3244 H 50.76239927029309 110.77920575649067 112.23234726855712 H 0.0 **** 0.06
3245 H 50.57708033155696 112.54873974530203 112.18928873681078 H 0.0 **** 0.06
3246 C 3.8406094060499 88.0291302588138 151.3476333292429 C 0.0 **** -0.24
3247 H 3.1089988432353124 88.63000112509799 151.88818427942715 H 0.0 **** 0.06
3248 H 4.845742541735248 88.33638178085742 151.63280868430314 H 0.0 **** 0.06
3249 H 3.7059961777240034 88.17386430878877 150.2752115427832 H 0.0 **** 0.06
3250 H 3.6975304176066004 86.976671300245 151.59312199578744 H 0.0 **** 0.06
3251 C 35.26520972935333 65.4065216931287 137.61826375146768 C 0.0 **** -0.24
3252 H 35.53898801843951 64.62958009896735 138.33219466376136 H 0.0 **** 0.06
3253 H 34.20462363354804 65.6372001169064 137.72259375216788 H 0.0 **** 0.06
3254 H 35.4628646312201 65.05417192202921 136.60558101432326 H 0.0 **** 0.06
3255 H 35.85360905895152 66.30283014018175 137.81303418923142 H 0.0 **** 0.06
3256 C 121.04668203597026 82.83101556020362 49.364743156019784 C 0.0 **** -0.24
3257 H 120.12471310469044 83.2572257221636 48.9703165977366 H 0.0 **** 0.06
3258 H 121.51290429793721 83.54333407248374 50.04541141267791 H 0.0 **** 0.06
3259 H 121.72839520051144 82.61566409070896 48.54103685645728 H 0.0 **** 0.06
3260 H 120.82149994647904 81.9088948807502 49.900141706956276 H 0.0 **** 0.06
3261 C 175.76852726767314 101.22700300292654 7.72929141407792 C 0.0 **** -0.24
3262 H 174.9296565063748 100.78608772503257 7.191010171546623 H 0.0 **** 0.06
3263 H 176.46430569259 101.67119269889777 7.016514410285225 H 0.0 **** 0.06
3264 H 176.27973124598014 100.45267221200585 8.301326776733276 H 0.0 **** 0.06
3265 H 175.40123418721487 101.9966251963828 8.407791672205917 H 0.0 **** 0.06
3266 C 98.95048801568508 90.53712657019598 34.18913334030465 C 0.0 **** -0.24
3267 H 98.37159051314838 89.82985477469366 34.782919853050586 H 0.0 **** 0.06
3268 H 99.79598540252404 90.02110448995363 33.73360559417512 H 0.0 **** 0.06
3269 H 99.31720286060202 91.33665277640326 34.83375045477507 H 0.0 **** 0.06
3270 H 98.31856675734083 90.96002662392767 33.40876856142059 H 0.0 **** 0.06
3271 C 9.244982109184647 58.19448544531967 209.70218095578537 C 0.0 **** -0.24
3272 H 9.141543404838743 58.09939973563331 210.78299559091238 H 0.0 **** 0.06
3273 H 8.329638480608068 58.6135496034744 209.2846711903639 H 0.0 **** 0.06
3274 H 9.427191571520567 57.2115772355793 209.26699558176028 H 0.0 **** 0.06
3275 H 10.083441563635446 58.85342009630605 209.4747254218582 H 0.0 **** 0.06
3276 C 173.20352910212785 168.70551342859062 148.20777897938046 C 0.0 **** -0.24
3277 H 173.6274195070504 168.8079127875638 149.20679671410647 H 0.0 **** 0.06
3278 H 173.34850342263104 169.63282619740258 147.65414498423848 H 0.0 **** 0.06
3279 H 172.137039261108 168.4906556898602 148.28652373126835 H 0.0 **** 0.06
3280 H 173.70075607593705 167.88825744292944 147.68509061028192 H 0.0 **** 0.06
3281 C 176.0022380244733 130.91331859790705 0.21701205168454862 C 0.0 **** -0.24
3282 H 176.2165827075106 130.95061346878634 -0.850869767339816 H 0.0 **** 0.06
3283 H 176.00379123833537 129.87668296961272 0.5520617159422443 H 0.0 **** 0.06
3284 H 175.02459096773975 131.35675091374372 0.4073674032280792 H 0.0 **** 0.06
3285 H 176.76533502565013 131.4727156649957 0.7596031048438476 H 0.0 **** 0.06
3286 C 200.45292533848783 17.943467055460417 100.96769761776119 C 0.0 **** -0.24
3287 H 200.3809894344886 17.443691393774543 100.00197579377488 H 0.0 **** 0.06
3288 H 201.50160073109794 18.116854704239245 101.20964344754918 H 0.0 **** 0.06
3289 H 200.00165295167054 17.31499045329511 101.73546290085847 H 0.0 **** 0.06
3290 H 199.9271609750885 18.896648945787206 100.92399139036695 H 0.0 **** 0.06
3291 C 148.0939432921707 109.08756204775194 159.29248034217545 C 0.0 **** -0.24
3292 H 148.53018928045356 108.35796353028475 158.60856176800525 H 0.0 **** 0.06
3293 H 147.68612295039907 108.56999236993191 160.16144602294057 H 0.0 **** 0.06
3294 H 147.29666854814297 109.62961391804127 158.7841852659517 H 0.0 **** 0.06
3295 H 148.86267719747627 109.78909157292223 159.61466914466158 H 0.0 **** 0.06
3296 C 167.80903343850372 170.89528735425063 158.60086263023564 C 0.0 **** -0.24
3297 H 167.9954890371779 170.68428056613936 157.5484936078991 H 0.0 **** 0.06
3298 H 166.73562112910133 170.88554232367602 158.7883864271631 H 0.0 **** 0.06
3299 H 168.21314164845975 171.8758863372077 158.85260124156423 H 0.0 **** 0.06
3300 H 168.29243977944228 170.13542051357567 159.21479896965428 H 0.0 **** 0.06
3301 C 7.97770620465235 180.9565966439653 111.77517797411672 C 0.0 **** -0.24
3302 H 8.395960019229761 181.88278151012736 111.3821862927797 H 0.0 **** 0.06
3303 H 7.290857487151584 180.52964258486642 111.04474577430067 H 0.0 **** 0.06
3304 H 7.441530311644698 181.16458880257343 112.70146293099337 H 0.0 **** 0.06
3305 H 8.784220628034575 180.25008480735033 111.9735227771274 H 0.0 **** 0.06
3306 C 162.02504963779188 40.73838937434755 75.49388360745485 C 0.0 **** -0.24
3307 H 162.07742981385334 41.80031675991319 75.73578585211021 H 0.0 **** 0.06
3308 H 161.1294433298405 40.30801829383739 75.94089948501266 H 0.0 **** 0.06
3309 H 162.90711528289805 40.233183510464585 75.88615564742389 H 0.0 **** 0.06
3310 H 161.98712478498726 40.61383239125729 74.41172031158032 H 0.0 **** 0.06
3311 C 92.27277079281386 66.49949536013526 31.145340638139118 C 0.0 **** -0.24
3312 H 91.41039842094393 66.99553080377274 30.699326202156385 H 0.0 **** 0.06
3313 H 92.77230913486567 65.89137361253671 30.390577405662953 H 0.0 **** 0.06
3314 H 91.93969080831995 65.86167498765872 31.964630603987416 H 0.0 **** 0.06
3315 H 92.96525416575561 67.24910551074387 31.52645021959546 H 0.0 **** 0.06
3316 C 163.54114905910575 102.60781839171831 74.6785689624753 C 0.0 **** -0.24
3317 H 162.55103399078496 102.44443141311025 74.25419181099328 H 0.0 **** 0.06
3318 H 163.87434522735248 103.61839717461545 74.44452418872434 H 0.0 **** 0.06
3319 H 164.24084658117795 101.88666431806449 74.25641577689738 H 0.0 **** 0.06
3320 H 163.49707150857753 102.48124630871611 75.76088399769999 H 0.0 **** 0.06
3321 C 164.95266435966525 80.89610790454294 119.82093470533442 C 0.0 **** -0.24
3322 H 164.0045562368116 80.36032683960106 119.77963376995041 H 0.0 **** 0.06
3323 H 165.75943038357207 80.19342929257168 120.03001481363617 H 0.0 **** 0.06
3324 H 164.91127536178124 81.64734676560231 120.60954630751428 H 0.0 **** 0.06
3325 H 165.13560943620342 81.38498697808664 118.86305918148236 H 0.0 **** 0.06
3326 C 119.36374668058356 153.68585795879227 7.131946191338486 C 0.0 **** -0.24
3327 H 119.45371664573629 152.600641503637 7.079364871971336 H 0.0 **** 0.06
3328 H 119.80664374301587 154.04259813088095 8.062692024312597 H 0.0 **** 0.06
3329 H 118.31033159408388 153.96520261268125 7.101166879151066 H 0.0 **** 0.06
3330 H 119.88426824396429 154.13475326585757 6.285532312107819 H 0.0 **** 0.06
3331 C 40.91572249607779 179.9202448934585 69.60983818544958 C 0.0 **** -0.24
3332 H 41.38747404423458 179.87727209409277 68.62847080194587 H 0.0 **** 0.06
3333 H 40.14628910031726 179.1513794593004 69.67768599254146 H 0.0 **** 0.06
3334 H 40.462728192112905 180.90154819116137 69.75226761000062 H 0.0 **** 0.06
3335 H 41.66739587731462 179.75129128237322 70.38179088158125 H 0.0 **** 0.06
3336 C 20.59535017899458 185.68001751769108 106.96029101534849 C 0.0 **** -0.24
3337 H 19.75357240178522 186.30685099970745 107.25468547447197 H 0.0 **** 0.06
3338 H 20.817799719979973 185.8433333348537 105.90632267443796 H 0.0 **** 0.06
3339 H 20.339947760312782 184.63237515686177 107.12078161457423 H 0.0 **** 0.06
3340 H 21.46752911544229 185.93818593622157 107.56080005333594 H 0.0 **** 0.06
3341 C 140.82846430364924 95.85705734734438 196.50399969044142 C 0.0 **** -0.24
3342 H 140.5689234145171 95.6896753231373 195.45835398919772 H 0.0 **** 0.06
3343 H 141.9117237081224 95.9361883139195 196.60060458362452 H 0.0 **** 0.06
3344 H 140.47002113944387 95.02065831463534 197.10480024644534 H 0.0 **** 0.06
3345 H 140.3638648964125 96.77903548160174 196.85068948449404 H 0.0 **** 0.06
3346 C 119.20617453926428 145.24104381633555 210.28740241162927 C 0.0 **** -0.24
3347 H 119.60179348983837 144.52345903502624 211.00579983274017 H 0.0 **** 0.06
3348 H 119.24857027928095 146.24328361430992 210.71432176314343 H 0.0 **** 0.06
3349 H 118.17180346811858 144.98794298411218 210.05471895078682 H 0.0 **** 0.06
3350 H 119.80240615023763 145.20832484226628 209.37604493232857 H 0.0 **** 0.06
3351 C 37.8029507707908 56.56486701199589 117.0926868078342 C 0.0 **** -0.24
3352 H 38.02210104571833 56.47107271131625 118.15636247502941 H 0.0 **** 0.06
3353 H 38.08858095116176 55.64530997045074 116.58156217585442 H 0.0 **** 0.06
3354 H 38.364857810795684 57.40150163867651 116.67825574548984 H 0.0 **** 0.06
3355 H 36.73631493487295 56.74045060805207 116.95541146827487 H 0.0 **** 0.06
3356 C 71.45483540448254 181.94794527776787 198.86775364017558 C 0.0 **** -0.24
3357 H 72.44794934799683 181.87354344229112 198.42559169536065 H 0.0 **** 0.06
3358 H 71.28934022800155 181.10140491709365 199.53402377918508 H 0.0 **** 0.06
3359 H 70.7041220757933 181.94206354836643 198.07810053657505 H 0.0 **** 0.06
3360 H 71.37787966207497 182.87611005424776 199.43439382997383 H 0.0 **** 0.06
3361 C 74.96339879433128 35.891569308964506 156.3093980276587 C 0.0 **** -0.24
3362 H 75.01506947667832 35.009176684620286 155.67137096067722 H 0.0 **** 0.06
3363 H 73.9960866144566 35.92080953810242 156.81042325992917 H 0.0 **** 0.06
3364 H 75.08566081477204 36.78683658853953 155.70098155183774 H 0.0 **** 0.06
3365 H 75.7583790122074 35.84672932717692 157.05381052537416 H 0.0 **** 0.06
3366 C 0.05818048214975846 81.573630486448 50.31425038505236 C 0.0 **** -0.24
3367 H 0.4522711328682618 82.37749952258173 50.935826820001864 H 0.0 **** 0.06
3368 H -0.7402633122459008 81.96234500988993 49.681190605328425 H 0.0 **** 0.06
3369 H -0.3351254547435829 80.78204104927778 50.950943965632945 H 0.0 **** 0.06
3370 H 0.8568118061844316 81.1738440617292 49.68826797064614 H 0.0 **** 0.06
3371 C 33.1044103211413 8.252324575881062 63.6664895527652 C 0.0 **** -0.24
3372 H 34.05695840983054 8.340460365153973 64.18860673463024 H 0.0 **** 0.06
3373 H 32.69310610200017 7.255600045951184 63.827331693296955 H 0.0 **** 0.06
3374 H 33.2577058030202 8.414018442159488 62.599652301754915 H 0.0 **** 0.06
3375 H 32.408562173893586 8.998683649087695 64.05036535976298 H 0.0 **** 0.06
3376 C 76.40504300908248 7.8205262683746355 137.0670531297954 C 0.0 **** -0.24
3377 H 75.8434816313636 7.601571673562887 137.97527328043924 H 0.0 **** 0.06
3378 H 77.00953561705336 6.955816284921269 136.79627380971755 H 0.0 **** 0.06
3379 H 77.0544658965631 8.67899019007092 137.2398644518118 H 0.0 **** 0.06
3380 H 75.71094237582912 8.047000442222497 136.25737362197185 H 0.0 **** 0.06
3381 C 51.72079413465735 8.24396463764316 77.80935882832023 C 0.0 **** -0.24
3382 H 52.65254507818878 7.684364076842385 77.72806599242983 H 0.0 **** 0.06
3383 H 51.736318093008435 8.844915812617828 78.71907683043969 H 0.0 **** 0.06
3384 H 50.881063962661415 7.548775957246647 77.84802540960976 H 0.0 **** 0.06
3385 H 51.61245671040848 8.8971077542992 76.94423907610877 H 0.0 **** 0.06
3386 C 8.640237949093716 140.2265066911241 175.63091177105628 C 0.0 **** -0.24
3387 H 8.962631229184467 139.19051137294275 175.7390895149752 H 0.0 **** 0.06
3388 H 8.348431842080828 140.61993211140117 176.60475815256973 H 0.0 **** 0.06
3389 H 7.789000048807168 140.27301486798962 174.95037360625855 H 0.0 **** 0.06
3390 H 9.459788123324131 140.820926571094 175.22838023603808 H 0.0 **** 0.06
3391 C 73.6156415324034 159.38431256027036 31.826227740968207 C 0.0 **** -0.24
3392 H 73.21069526078128 160.39486615267316 31.765588613573158 H 0.0 **** 0.06
3393 H 73.95173585736069 159.0677421418843 30.838716770973292 H 0.0 **** 0.06
3394 H 72.84185238843065 158.70485111601886 32.183052119313984 H 0.0 **** 0.06
3395 H 74.4576735671198 159.37207618442358 32.51910469949827 H 0.0 **** 0.06
3396 C 27.5175381307655 8.249594054754255 14.753361465266053 C 0.0 **** -0.24
3397 H 27.848359378574514 9.272538673394024 14.928274923582208 H 0.0 **** 0.06
3398 H 26.49048186014204 8.135368777264432 15.099998362770947 H 0.0 **** 0.06
3399 H 28.16375505829035 7.559903893504838 15.297017894517708 H 0.0 **** 0.06
3400 H 27.567752307640745 8.02963213799751 13.68710988936904 H 0.0 **** 0.06
3401 C 138.56198244622078 205.4613368395619 65.27978458276226 C 0.0 **** -0.24
3402 H 138.2404372328695 204.44524219203456 65.51011802171293 H 0.0 **** 0.06
3403 H 138.56650481883912 205.60452805064676 64.19964294987813 H 0.0 **** 0.06
3404 H 139.5657491934108 205.6214421329756 65.67293562616507 H 0.0 **** 0.06
3405 H 137.87402821260326 206.1719359384604 65.7380847383503 H 0.0 **** 0.06
3406 C 84.27456349806609 159.64976540098897 90.33385608628453 C 0.0 **** -0.24
3407 H 84.3421710938269 158.5832461930559 90.54689861072006 H 0.0 **** 0.06
3408 H 83.301518745606 159.87028802396455 89.89388354769426 H 0.0 **** 0.06
3409 H 85.06262470214897 159.93177047218722 89.63632486949348 H 0.0 **** 0.06
3410 H 84.3904116149673 160.21230716403778 91.26045369113149 H 0.0 **** 0.06
3411 C 106.8483353218986 73.04633641760346 148.08159662070096 C 0.0 **** -0.24
3412 H 106.3038520240275 72.26405554410535 148.61097712616282 H 0.0 **** 0.06
3413 H 106.33997122619071 74.00105814321283 148.2220798437436 H 0.0 **** 0.06
3414 H 106.88489745104086 72.80744354973861 147.01802030916662 H 0.0 **** 0.06
3415 H 107.86278885545373 73.11292973517 148.47403449571743 H 0.0 **** 0.06
3416 C 161.42686726340918 135.08714368947903 7.149392022297121 C 0.0 **** -0.24
3417 H 162.0844537158443 135.03302382749814 6.282585693848006 H 0.0 **** 0.06
3418 H 161.90114944193084 135.6838348353309 7.929062620223178 H 0.0 **** 0.06
3419 H 161.23814863850677 134.08170374514577 7.52595269382013 H 0.0 **** 0.06
3420 H 160.48258557355763 135.5499997136685 6.86127825746955 H 0.0 **** 0.06
3421 C 170.60673167545716 135.3133286394559 3.576252646733394 C 0.0 **** -0.24
3422 H 171.48627724036183 134.7262354643306 3.3122766302842592 H 0.0 **** 0.06
3423 H 169.74755807690062 134.6505866291082 3.6844696006829167 H 0.0 **** 0.06
3424 H 170.4077104549009 136.04221640752593 2.791671685933437 H 0.0 **** 0.06
3425 H 170.78589624200387 135.83264135927982 4.518342618235721 H 0.0 **** 0.06
3426 C 64.88768272066525 128.07806187433863 58.73785367972653 C 0.0 **** -0.24
3427 H 63.80831810883143 128.2258842864441 58.751913853370155 H 0.0 **** 0.06
3428 H 65.11349504387108 127.082804464163 58.353681015371905 H 0.0 **** 0.06
3429 H 65.28130107508018 128.17533764950446 59.74875630664968 H 0.0 **** 0.06
3430 H 65.34838571291657 128.8286670965436 58.0950117835136 H 0.0 **** 0.06
3431 C 180.112194118063 176.3336649153239 173.25965798485785 C 0.0 **** -0.24
3432 H 179.55509841762876 177.2427283151345 173.03373931129042 H 0.0 **** 0.06
3433 H 179.80198969056016 175.5398065244111 172.57982770195682 H 0.0 **** 0.06
3434 H 179.91148205862194 176.03099283673575 174.28748988873383 H 0.0 **** 0.06
3435 H 181.1793926899718 176.52064177397799 173.13788767135253 H 0.0 **** 0.06
3436 C 36.4138465664721 10.1529778743257 140.54969764152509 C 0.0 **** -0.24
3437 H 36.36460913483032 11.232267569651015 140.6992656593904 H 0.0 **** 0.06
3438 H 35.72395187358505 9.864897409023513 139.75629225928333 H 0.0 **** 0.06
3439 H 36.13853504696736 9.645552025650261 141.47369964058527 H 0.0 **** 0.06
3440 H 37.42890893927387 9.871564570100986 140.26952971489078 H 0.0 **** 0.06
3441 C 5.201520316587576 141.34280063645986 122.33883296637391 C 0.0 **** -0.24
3442 H 4.514761597052498 141.8912446245343 121.69493485981916 H 0.0 **** 0.06
3443 H 6.198682465623662 141.3539450756228 121.89933486807685 H 0.0 **** 0.06
3444 H 4.860054050195316 140.311963788036 122.43875461692421 H 0.0 **** 0.06
3445 H 5.231614905697455 141.8114018473529 123.32207319294052 H 0.0 **** 0.06
3446 C 87.21527105775823 5.83551948240391 47.007582047671576 C 0.0 **** -0.24
3447 H 87.24010193135251 6.570029500417405 47.81289106102973 H 0.0 **** 0.06
3448 H 87.8704511372107 6.160249452790055 46.19933972994011 H 0.0 **** 0.06
3449 H 86.1957149440911 5.740455108827618 46.633985697738666 H 0.0 **** 0.06
3450 H 87.55434042447018 4.8714216976993825 47.385441211859956 H 0.0 **** 0.06
3451 C 16.243490254356487 63.31172706018528 154.40733552785963 C 0.0 **** -0.24
3452 H 15.556636274955608 63.63948214225253 153.6268405834458 H 0.0 **** 0.06
3453 H 15.928352560064283 63.72606091187778 155.36504103114453 H 0.0 **** 0.06
3454 H 17.24973749198061 63.661304928144105 154.17372694892236 H 0.0 **** 0.06
3455 H 16.240133593923886 62.2238774725776 154.46116037443613 H 0.0 **** 0.06
3456 C 106.1423765630267 76.65709592394826 66.86403368760598 C 0.0 **** -0.24
3457 H 106.26260981904663 75.65338794333503 66.45631516857634 H 0.0 **** 0.06
3458 H 107.08872383649712 76.99158853533838 67.29012720202797 H 0.0 **** 0.06
3459 H 105.37823984867238 76.64408702347716 67.64118552982931 H 0.0 **** 0.06
3460 H 105.84097493493003 77.33836431080174 66.06849388590594 H 0.0 **** 0.06
3461 C 95.68723022291336 70.56956840258829 159.85352342767345 C 0.0 **** -0.24
3462 H 96.68055771903305 70.38422032475012 160.26290677052407 H 0.0 **** 0.06
3463 H 95.08451272922356 71.10214659620016 160.5895364954751 H 0.0 **** 0.06
3464 H 95.2108313461679 69.61968043121755 159.61257929495355 H 0.0 **** 0.06
3465 H 95.77397776360361 71.17219381665728 158.94935385679463 H 0.0 **** 0.06
3466 C 181.96870991746016 2.645043193632148 45.96110376938664 C 0.0 **** -0.24
3467 H 181.06174494613592 3.1897118469516386 46.22230048620483 H 0.0 **** 0.06
3468 H 182.80764073916308 3.043624539682213 46.53242954361177 H 0.0 **** 0.06
3469 H 182.16738504578046 2.7591620799605323 44.895357921009065 H 0.0 **** 0.06
3470 H 181.83866494588386 1.5884133172201587 46.19464122500804 H 0.0 **** 0.06
3471 C 113.7181866240392 136.52268417671502 184.1893876056524 C 0.0 **** -0.24
3472 H 113.58092948569539 137.1377672155121 183.30061572675157 H 0.0 **** 0.06
3473 H 113.42800179923582 137.091559413318 185.0735741780914 H 0.0 **** 0.06
3474 H 114.76504518249256 136.2306494822392 184.2716677987867 H 0.0 **** 0.06
3475 H 113.09681026947253 135.62982009748305 184.11282183733803 H 0.0 **** 0.06
3476 C 114.11775837942842 89.61046113382201 0.6591106794953419 C 0.0 **** -0.24
3477 H 113.51049819502522 89.54425066016836 1.562429225605321 H 0.0 **** 0.06
3478 H 114.03983925647547 88.6768474129924 0.10133637088360814 H 0.0 **** 0.06
3479 H 115.15832512952186 89.78398551820123 0.9340748043216394 H 0.0 **** 0.06
3480 H 113.76181417186895 90.43460001634162 0.042069404282244705 H 0.0 **** 0.06
3481 C 98.86756978282318 108.49708385904809 166.17854624581423 C 0.0 **** -0.24
3482 H 98.50621253951357 109.13074517013781 166.9882748525065 H 0.0 **** 0.06
3483 H 99.3883371891306 107.63539478580866 166.59675599556252 H 0.0 **** 0.06
3484 H 99.55133198854412 109.0661731517887 165.54857818144126 H 0.0 **** 0.06
3485 H 98.02199156198157 108.15622592827218 165.5801630077798 H 0.0 **** 0.06
3486 C 94.76758911258214 201.2595264032036 213.57641145561752 C 0.0 **** -0.24
3487 H 95.46981442847967 200.9474126120037 212.80406586850563 H 0.0 **** 0.06
3488 H 93.75254202118434 201.01372970291627 213.2651213768105 H 0.0 **** 0.06
3489 H 94.85080560269067 202.33547557235366 213.7292987851431 H 0.0 **** 0.06
3490 H 94.99858735147792 200.74133139549355 214.50697197468094 H 0.0 **** 0.06
3491 C 167.46657976965477 190.9859470351389 116.04036930609978 C 0.0 **** -0.24
3492 H 168.1241979718972 190.50752362028155 116.76519442256644 H 0.0 **** 0.06
3493 H 166.8759391216552 191.7550821349996 116.53881586575507 H 0.0 **** 0.06
3494 H 166.80081929074723 190.24044455293958 115.6062930926587 H 0.0 **** 0.06
3495 H 168.06586517680552 191.44260628680556 115.25229476892356 H 0.0 **** 0.06
3496 C 32.8008720779211 199.1799708618264 87.33482938040595 C 0.0 **** -0.24
3497 H 32.887709399463546 198.46835932452484 88.15621993604901 H 0.0 **** 0.06
3498 H 32.136584694042114 198.7733677954418 86.57164043202238 H 0.0 **** 0.06
3499 H 33.7861029903699 199.35793330806908 86.90285534421355 H 0.0 **** 0.06
3500 H 32.39296984294276 200.11923582081408 87.70870535581219 H 0.0 **** 0.06
3501 C 110.99294558701733 78.95382046528898 156.18401603452935 C 0.0 **** -0.24
3502 H 111.15421777988381 78.3744794213148 157.09278903217347 H 0.0 **** 0.06
3503 H 110.44619585192369 79.86552925834717 156.42683480966429 H 0.0 **** 0.06
3504 H 110.41505734244065 78.36177731128682 155.47369200075127 H 0.0 **** 0.06
3505 H 111.9550367824556 79.21357324033055 155.74335613153647 H 0.0 **** 0.06
3506 C 203.4576027872682 57.5956532758953 17.331677039758304 C 0.0 **** -0.24
3507 H 202.83147626506403 58.482927971557444 17.236139954597988 H 0.0 **** 0.06
3508 H 203.26692729112173 56.924867345576615 16.49462315360472 H 0.0 **** 0.06
3509 H 203.22392712153464 57.08590149322248 18.26702454775007 H 0.0 **** 0.06
3510 H 204.506627778719 57.889758777279155 17.33039698182185 H 0.0 **** 0.06
3511 C 88.78658960309133 90.82644535155116 207.46195675465748 C 0.0 **** -0.24
3512 H 87.7437878216167 90.89558335370144 207.77278392558878 H 0.0 **** 0.06
3513 H 89.30461322769787 90.10063305096351 208.08766286848436 H 0.0 **** 0.06
3514 H 89.26093069635425 91.80237477634797 207.5662276769648 H 0.0 **** 0.06
3515 H 88.8335153815911 90.50938252588124 206.4202224940051 H 0.0 **** 0.06
3516 C 202.07465934415447 126.85296133257611 46.39928408194672 C 0.0 **** -0.24
3517 H 203.07207907604862 126.52282628071862 46.11035701630138 H 0.0 **** 0.06
3518 H 202.09118765554214 127.19557824994149 47.433439574683206 H 0.0 **** 0.06
3519 H 201.37462965779548 126.02229872816588 46.30232927176591 H 0.0 **** 0.06
3520 H 201.7611076390144 127.67058409359856 45.75026598931166 H 0.0 **** 0.06
3521 C 11.74935823168984 22.91774974700907 0.9677007678439224 C 0.0 **** -0.24
3522 H 11.504570889031825 22.28768768950819 0.11211610741625577 H 0.0 **** 0.06
3523 H 12.832574011158968 22.986011121304387 1.0701854184562407 H 0.0 **** 0.06
3524 H 11.324681524096718 22.482112226322755 1.8730265705801301 H 0.0 **** 0.06
3525 H 11.334164039214485 23.91436429532594 0.8149841163984917 H 0.0 **** 0.06
3526 C 106.43533244879988 164.89031462094715 8.188766253369408 C 0.0 **** -0.24
3527 H 106.80076488291921 165.84165799820593 8.577053611713453 H 0.0 **** 0.06
3528 H 107.26876792561036 164.32499059649086 7.770651190639597 H 0.0 **** 0.06
3529 H 105.69488046593027 165.07560820658375 7.410437087864835 H 0.0 **** 0.06
3530 H 105.9788940796369 164.31916902084242 8.99717076510629 H 0.0 **** 0.06
3531 C 43.75487866866672 83.23735675847935 216.01361894011018 C 0.0 **** -0.24
3532 H 42.981994514369376 83.24644118542157 216.78125666072842 H 0.0 **** 0.06
3533 H 43.51422693131158 82.48095789386439 215.2654493974789 H 0.0 **** 0.06
3534 H 44.71717273393213 83.00397982241672 216.46924430569544 H 0.0 **** 0.06
3535 H 43.80515359598084 84.216180766 215.53726915161863 H 0.0 **** 0.06
3536 C 211.99929832957696 126.66402792003332 118.11380750721077 C 0.0 **** -0.24
3537 H 211.19148769712257 127.32356527579675 118.43188077792303 H 0.0 **** 0.06
3538 H 212.30932475352114 126.93139324181773 117.1030357439302 H 0.0 **** 0.06
3539 H 211.65131431626213 125.63155285521528 118.12760931379142 H 0.0 **** 0.06
3540 H 212.84393446928925 126.77247555181474 118.79390899423089 H 0.0 **** 0.06
3541 C 88.48494029405543 106.86658033065538 197.8590171739491 C 0.0 **** -0.24
3542 H 88.74064247258974 106.27886401974729 198.74043595268506 H 0.0 **** 0.06
3543 H 87.99973467939998 107.79211940306118 198.1676319173585 H 0.0 **** 0.06
3544 H 87.80786957118681 106.2939212336903 197.22509451812311 H 0.0 **** 0.06
3545 H 89.39307049893641 107.09952747515695 197.30280741186408 H 0.0 **** 0.06
3546 C 170.90205591729853 81.25537825122927 67.74386060633785 C 0.0 **** -0.24
3547 H 170.28057151940504 81.04546822719209 68.6144098942238 H 0.0 **** 0.06
3548 H 170.81825027780155 82.3108772262006 67.48349993608053 H 0.0 **** 0.06
3549 H 170.5667060787976 80.64558171514796 66.90399226310151 H 0.0 **** 0.06
3550 H 171.93996694489232 81.01834456778931 67.97342723109023 H 0.0 **** 0.06
3551 C 50.782022330389566 104.65720078376869 190.06655225083566 C 0.0 **** -0.24
3552 H 49.815385612493685 104.6256702021068 190.56975143899248 H 0.0 **** 0.06
3553 H 50.62721362735044 104.73436722804554 188.98962014102972 H 0.0 **** 0.06
3554 H 51.33749688154256 103.74749822839938 190.290119659866 H 0.0 **** 0.06
3555 H 51.3451313669284 105.52260291443746 190.4165544063149 H 0.0 **** 0.06
3556 C 96.86345404074699 65.13635858872156 106.71676757771816 C 0.0 **** -0.24
3557 H 97.51353804410819 65.80152331755527 107.2850208719649 H 0.0 **** 0.06
3558 H 96.28160297709975 64.52215193168216 107.40530202781558 H 0.0 **** 0.06
3559 H 97.4692986031096 64.49352388389943 106.07940110670349 H 0.0 **** 0.06
3560 H 96.18844380301432 65.72928893327605 106.09908405608506 H 0.0 **** 0.06
3561 C 87.7612349808944 78.8032534355787 89.15303514133232 C 0.0 **** -0.24
3562 H 88.37607867628994 77.92637980150711 89.35797662316917 H 0.0 **** 0.06
3563 H 87.09445036762149 78.98472767892834 89.99608348983945 H 0.0 **** 0.06
3564 H 87.17157303480035 78.62997405324218 88.25317394589858 H 0.0 **** 0.06
3565 H 88.40336255302766 79.67113391718614 89.00461082237904 H 0.0 **** 0.06
3566 C 73.55887184328041 168.06990810961017 28.339537567868746 C 0.0 **** -0.24
3567 H 74.095487943892 168.34114202475635 29.249177318093274 H 0.0 **** 0.06
3568 H 72.90116920824114 168.89017865734536 28.048179289470937 H 0.0 **** 0.06
3569 H 72.96490978860864 167.1742783937912 28.521898824859818 H 0.0 **** 0.06
3570 H 74.27421622250851 167.8755984100167 27.540755816297548 H 0.0 **** 0.06
3571 C 182.89612970261652 87.05906245778812 78.0502982175867 C 0.0 **** -0.24
3572 H 183.4550832144572 86.16032102612098 78.31040577706621 H 0.0 **** 0.06
3573 H 182.30895111734338 86.87482097983951 77.15056796592226 H 0.0 **** 0.06
3574 H 183.59110617359335 87.87961718041947 77.86983547458773 H 0.0 **** 0.06
3575 H 182.22917841701167 87.32223633012018 78.87222866386035 H 0.0 **** 0.06
3576 C 172.1205173550854 153.50918589204042 75.00483140786133 C 0.0 **** -0.24
3577 H 171.7715693670639 152.59657831881657 74.52255260832021 H 0.0 **** 0.06
3578 H 172.34057222139955 154.25998443688593 74.24578823362486 H 0.0 **** 0.06
3579 H 173.02268749982176 153.29554406838048 75.57788667146235 H 0.0 **** 0.06
3580 H 171.34614114434203 153.88430156093182 75.67473503783503 H 0.0 **** 0.06
3581 C 67.07278218869769 114.96008588305911 33.84751966089972 C 0.0 **** -0.24
3582 H 67.39407873665984 113.93050313605524 33.68721667686931 H 0.0 **** 0.06
3583 H 67.11312045968414 115.19093451162011 34.91283036679927 H 0.0 **** 0.06
3584 H 66.05221049527096 115.0822141792146 33.48648058688275 H 0.0 **** 0.06
3585 H 67.73487885045427 115.63497572620464 33.30458609624475 H 0.0 **** 0.06
3586 C 139.43531414958602 139.33018182984864 149.39725528907462 C 0.0 **** -0.24
3587 H 139.4049682899743 139.40850769743133 148.3107189041769 H 0.0 **** 0.06
3588 H 140.4533352349169 139.50596934541613 149.74579648723216 H 0.0 **** 0.06
3589 H 139.1143116708991 138.33251444928504 149.69805481698182 H 0.0 **** 0.06
3590 H 138.76748400872714 140.07330956321493 149.83323489308174 H 0.0 **** 0.06
3591 C 99.48148969349914 179.70192788318806 43.8815601391652 C 0.0 **** -0.24
3592 H 100.26445160681384 180.26112424570573 43.367988108620025 H 0.0 **** 0.06
3593 H 99.87624164420534 179.2970689106349 44.812975316397555 H 0.0 **** 0.06
3594 H 99.14239677681597 178.884977721734 43.24400263019467 H 0.0 **** 0.06
3595 H 98.64432775169463 180.36528164347226 44.09876006493113 H 0.0 **** 0.06
3596 C 129.16523842137565 119.3064925434315 114.66074124017409 C 0.0 **** -0.24
3597 H 128.868263536116 119.3089519699986 115.70968833701794 H 0.0 **** 0.06
3598 H 128.69515218900727 118.4650059502889 114.15188626784656 H 0.0 **** 0.06
3599 H 130.24928615291935 119.21584175642421 114.59033462729532 H 0.0 **** 0.06
3600 H 128.84841967455634 120.23814949814512 114.1912911918197 H 0.0 **** 0.06
3601 C 15.668059533452677 114.21639462805474 71.3105995875588 C 0.0 **** -0.24
3602 H 16.28563276763299 114.20919741508568 72.20853089388582 H 0.0 **** 0.06
3603 H 14.71993794958982 113.71907828807947 71.5167695855745 H 0.0 **** 0.06
3604 H 16.187275161281107 113.69166157617856 70.50829322362647 H 0.0 **** 0.06
3605 H 15.47986859723487 115.24676549490972 71.0075761586089 H 0.0 **** 0.06
3606 C 144.4860717426614 50.28634955373798 208.9760960219964 C 0.0 **** -0.24
3607 H 143.98080183542436 50.91543766830978 208.2428814483967 H 0.0 **** 0.06
3608 H 145.41550663916763 50.76578080464873 209.28700054723993 H 0.0 **** 0.06
3609 H 144.709691744476 49.31724490162168 208.52959920014047 H 0.0 **** 0.06
3610 H 143.8408972098839 50.147996596109635 209.84265380294437 H 0.0 **** 0.06
3611 C 48.902615222893004 180.19912855206286 106.25299290143494 C 0.0 **** -0.24
3612 H 47.997306078060134 180.16582220223017 106.8578698724233 H 0.0 **** 0.06
3613 H 49.12450773631649 181.23236879816272 105.9875076297987 H 0.0 **** 0.06
3614 H 48.75442401243228 179.61421031162777 105.3450974458654 H 0.0 **** 0.06
3615 H 49.734383894900006 179.78279537956428 106.8210084800229 H 0.0 **** 0.06
3616 C 111.68425458924933 136.90230488538793 129.7288675192513 C 0.0 **** -0.24
3617 H 111.46575522722308 136.82874552874608 128.66321175968073 H 0.0 **** 0.06
3618 H 112.03756414409558 137.9073322298787 129.95842910908806 H 0.0 **** 0.06
3619 H 112.45454446337634 136.17710955023136 129.99142298735427 H 0.0 **** 0.06
3620 H 110.77979149652721 136.69470713326695 130.29979116297068 H 0.0 **** 0.06
3621 C 204.33816412668668 10.380493593944891 49.84289576543448 C 0.0 **** -0.24
3622 H 204.39448237164018 10.839495504697396 48.85494097472174 H 0.0 **** 0.06
3623 H 203.56812575800785 10.88091342084644 50.43045516905788 H 0.0 **** 0.06
3624 H 205.30049120035082 10.477908279085 50.34480722026572 H 0.0 **** 0.06
3625 H 204.088092469757 9.324499771907256 49.73870671679404 H 0.0 **** 0.06
3626 C 177.8966469156882 149.76516522588895 114.24578867593078 C 0.0 **** -0.24
3627 H 177.01489573027607 149.70090636330997 114.88364272548313 H 0.0 **** 0.06
3628 H 178.78412200380984 149.89962546718755 114.86472611989012 H 0.0 **** 0.06
3629 H 177.7937837556603 150.6141480023138 113.56870627255705 H 0.0 **** 0.06
3630 H 177.99269449858676 148.84732176258706 113.66597545514986 H 0.0 **** 0.06
3631 C 76.07239699301253 80.59374462117518 150.83122247085083 C 0.0 **** -0.24
3632 H 75.82039895745051 81.5583608303827 150.38967438732118 H 0.0 **** 0.06
3633 H 76.39175270344795 79.90781427874015 150.04656991505755 H 0.0 **** 0.06
3634 H 75.19551862960289 80.18548714703547 151.33592074177238 H 0.0 **** 0.06
3635 H 76.87915570720837 80.7239214735531 151.55265195708552 H 0.0 **** 0.06
3636 C 127.52999715898842 89.24371842295584 25.851887048907287 C 0.0 **** -0.24
3637 H 126.45931429814756 89.30730122996472 26.044034288389497 H 0.0 **** 0.06
3638 H 128.01957619609095 90.14341541008984 26.224460306001376 H 0.0 **** 0.06
3639 H 127.70178506644469 89.15331933576162 24.77970141089709 H 0.0 **** 0.06
3640 H 127.93791226416936 88.37027432202717 26.36066382416132 H 0.0 **** 0.06
3641 C 205.96499146619493 209.85754309388204 35.060918094105176 C 0.0 **** -0.24
3642 H 205.48698537773697 210.8221645980811 34.891004393944755 H 0.0 **** 0.06
3643 H 206.39119572780865 209.8359611684014 36.06454566758953 H 0.0 **** 0.06
3644 H 206.75623014645353 209.70967575722614 34.325867252109646 H 0.0 **** 0.06
3645 H 205.22521940497967 209.0633473982794 34.96322151331354 H 0.0 **** 0.06
3646 C 209.5533507614463 12.705700181037287 87.44382205985846 C 0.0 **** -0.24
3647 H 210.3394827605076 13.235997861246062 87.98138878937442 H 0.0 **** 0.06
3648 H 209.9765971986074 12.232802513406938 86.55738007438418 H 0.0 **** 0.06
3649 H 208.77852281463902 13.411722370918227 87.14548592009783 H 0.0 **** 0.06
3650 H 209.1205782391395 11.943839475279049 88.09166643480927 H 0.0 **** 0.06
3651 C 25.34764739212204 89.19094581874354 10.535387338374221 C 0.0 **** -0.24
3652 H 24.744433591729774 89.50484384572756 11.38616594910684 H 0.0 **** 0.06
3653 H 24.706603026341497 89.06281959796273 9.661842852483886 H 0.0 **** 0.06
3654 H 25.83942198020452 88.24586546994523 10.767340000943477 H 0.0 **** 0.06
3655 H 26.10130711834995 89.9509154649986 10.324417378998533 H 0.0 **** 0.06
3656 C 56.42455282286572 194.6443884571048 125.20006724112194 C 0.0 **** -0.24
3657 H 57.190087221269934 193.9137223004811 125.45896909412242 H 0.0 **** 0.06
3658 H 56.33545251837256 194.7078080292452 124.11583469207314 H 0.0 **** 0.06
3659 H 56.70297818174902 195.61981832509773 125.59972714548086 H 0.0 **** 0.06
3660 H 55.46944481288814 194.3355643380155 125.6264643702229 H 0.0 **** 0.06
3661 C 46.94926675144484 210.29844619831653 117.2510448414264 C 0.0 **** -0.24
3662 H 46.374858207071725 209.4907835559195 116.79884798838624 H 0.0 **** 0.06
3663 H 46.758282908485285 210.3242244251414 118.32365370927535 H 0.0 **** 0.06
3664 H 46.65206060891791 211.24855080749808 116.80611350714044 H 0.0 **** 0.06
3665 H 48.01237930138018 210.13133942449875 117.0736943575787 H 0.0 **** 0.06
3666 C 78.49351142007636 63.9402008234087 94.94679512908557 C 0.0 **** -0.24
3667 H 77.82022766123465 64.35322576416058 95.69836450456158 H 0.0 **** 0.06
3668 H 78.04078091960353 63.05539258990984 94.49995554870218 H 0.0 **** 0.06
3669 H 79.43837595240355 63.66670915114793 95.41799199100204 H 0.0 **** 0.06
3670 H 78.67601849708295 64.68666292370267 94.17399073585035 H 0.0 **** 0.06
3671 C 161.23741445708242 32.858481295948934 22.00874479616627 C 0.0 **** -0.24
3672 H 160.69719186778713 31.93073870137198 22.20309089574019 H 0.0 **** 0.06
3673 H 161.0531015330343 33.56217363811564 22.82124709819493 H 0.0 **** 0.06
3674 H 160.89215568133932 33.288864349176094 21.068733125427173 H 0.0 **** 0.06
3675 H 162.3050691683768 32.64943616048021 21.943924428065486 H 0.0 **** 0.06
3676 C 206.22109059969912 18.70443584191571 27.368840806245544 C 0.0 **** -0.24
3677 H 206.77038971461766 18.71708579166244 28.309674787392623 H 0.0 **** 0.06
3678 H 206.91792158425716 18.823321515994024 26.538817359990247 H 0.0 **** 0.06
3679 H 205.50009777776586 19.522901199220883 27.35864397414656 H 0.0 **** 0.06
3680 H 205.69379520431602 17.755465392920996 27.268756851129737 H 0.0 **** 0.06
3681 C 59.523418893566955 214.07736650475712 195.28155822743543 C 0.0 **** -0.24
3682 H 60.60857120687518 214.16698999543655 195.24291620121693 H 0.0 **** 0.06
3683 H 59.242157120043444 213.4275883891564 196.1094769005566 H 0.0 **** 0.06
3684 H 59.16049590941894 213.6527503290109 194.34569651583564 H 0.0 **** 0.06
3685 H 59.08309225957626 215.0635747423829 195.4269091680583 H 0.0 **** 0.06
3686 C 26.504073836730356 19.207175632344388 78.84762123481471 C 0.0 **** -0.24
3687 H 25.64752446953071 19.8260462453606 78.58339509061466 H 0.0 **** 0.06
3688 H 26.313201111360513 18.71055949471254 79.79896720316503 H 0.0 **** 0.06
3689 H 27.39129554279799 19.83322114003012 78.9351813886069 H 0.0 **** 0.06
3690 H 26.662776437051207 18.45743924315923 78.07210851515134 H 0.0 **** 0.06
3691 C 54.66372918761232 98.55829434924306 102.45344004036349 C 0.0 **** -0.24
3692 H 54.09575129165691 99.47446085435217 102.61490576450853 H 0.0 **** 0.06
3693 H 54.70070560361694 98.33748336292035 101.38676605712647 H 0.0 **** 0.06
3694 H 54.182091081396266 97.73451418650518 102.9794791085738 H 0.0 **** 0.06
3695 H 55.67704899281907 98.68805995674148 102.83346898101735 H 0.0 **** 0.06
3696 C 56.951202724804816 33.57306217403311 187.43874165899825 C 0.0 **** -0.24
3697 H 57.087283482267864 33.69029368463649 186.36372773635696 H 0.0 **** 0.06
3698 H 56.78325623949915 32.521521460035956 187.67146304080936 H 0.0 **** 0.06
3699 H 56.09108091725294 34.159388009281884 187.76244774844037 H 0.0 **** 0.06
3700 H 57.843987159344195 33.92312712387809 187.95750714703928 H 0.0 **** 0.06
3701 C 172.18765372509168 206.4081436672342 118.1031324613258 C 0.0 **** -0.24
3702 H 171.53051978324558 206.06409969787327 117.30395796266538 H 0.0 **** 0.06
3703 H 172.71290539377492 207.30632773084469 117.78024828963066 H 0.0 **** 0.06
3704 H 172.91163860820114 205.62730932713703 118.33846154628799 H 0.0 **** 0.06
3705 H 171.5942217805434 206.63221376078496 118.98927310972749 H 0.0 **** 0.06
3706 C 62.97987930571317 22.036725944938496 43.467161401309795 C 0.0 **** -0.24
3707 H 62.294966887440424 22.722326911134616 43.96602353623402 H 0.0 **** 0.06
3708 H 62.820570729121485 21.026559812306886 43.84581865676077 H 0.0 **** 0.06
3709 H 64.00799071323445 22.341634963304102 43.665919003361 H 0.0 **** 0.06
3710 H 62.79572312066783 22.05651235625328 42.39310082068374 H 0.0 **** 0.06
3711 C 2.165453091048846 26.296489861693686 185.56886460241446 C 0.0 **** -0.24
3712 H 1.3221980620328964 26.56538342037706 184.93202996060182 H 0.0 **** 0.06
3713 H 2.4469785917954425 27.15507659844519 186.17969876078527 H 0.0 **** 0.06
3714 H 3.009960844513671 25.999697456516515 184.94802643043943 H 0.0 **** 0.06
3715 H 1.881023114935175 25.467017404763055 186.21659461941675 H 0.0 **** 0.06
3716 C 155.89776299867088 5.026708555880511 12.756489716418216 C 0.0 **** -0.24
3717 H 155.22970035759357 4.263148285204366 13.153630924954058 H 0.0 **** 0.06
3718 H 156.7439173572235 5.155017887466094 13.431827158506962 H 0.0 **** 0.06
3719 H 155.35904257820772 5.969440021419302 12.665611698273281 H 0.0 **** 0.06
3720 H 156.25901050531866 4.7180750991273115 11.775425616920046 H 0.0 **** 0.06
3721 C 96.94690271738256 200.48873941537425 190.15739499053714 C 0.0 **** -0.24
3722 H 97.99810952210203 200.4018385260485 189.88366772511654 H 0.0 **** 0.06
3723 H 96.84300348225503 200.3877958120951 191.23745261145424 H 0.0 **** 0.06
3724 H 96.37629600012013 199.702232469259 189.66201941618309 H 0.0 **** 0.06
3725 H 96.5691623941795 201.4622859569302 189.84437338996582 H 0.0 **** 0.06
3726 C 17.29846179237407 188.93797204429754 178.20133987039162 C 0.0 **** -0.24
3727 H 17.66433561053981 188.25929553773886 177.43093498764102 H 0.0 **** 0.06
3728 H 16.541527884205777 189.59656516354934 177.77585157166064 H 0.0 **** 0.06
3729 H 18.126767001716985 189.53323684186321 178.58343201787608 H 0.0 **** 0.06
3730 H 16.860349184179086 188.36013177471122 179.01556288277047 H 0.0 **** 0.06
3731 C 138.81681099790381 112.9211611971197 90.2705046557703 C 0.0 **** -0.24
3732 H 139.50230291000406 112.48437257966758 89.54304489130452 H 0.0 **** 0.06
3733 H 137.84716742958034 112.42831019390631 90.19654261270632 H 0.0 **** 0.06
3734 H 138.7000628164236 113.9855135503151 90.06470601790933 H 0.0 **** 0.06
3735 H 139.21882506523286 112.78693211389675 91.2741860599104 H 0.0 **** 0.06
3736 C 172.768061861587 79.67567103556429 19.62856247101473 C 0.0 **** -0.24
3737 H 172.38214197638627 80.67930084382029 19.448703652669508 H 0.0 **** 0.06
3738 H 172.05819901632412 79.11802266018721 20.24014417503105 H 0.0 **** 0.06
3739 H 173.72307643187912 79.74127188989392 20.148540174280214 H 0.0 **** 0.06
3740 H 172.90731148397265 79.16423212313948 18.67522677614639 H 0.0 **** 0.06
3741 C 159.0783485063099 102.88267180957969 134.48468887009102 C 0.0 **** -0.24
3742 H 158.891175187776 102.9023162000626 135.55821128693879 H 0.0 **** 0.06
3743 H 160.1536052766541 102.85613984843697 134.3048220062962 H 0.0 **** 0.06
3744 H 158.65546636191743 103.77555723599009 134.02579844812595 H 0.0 **** 0.06
3745 H 158.6154362777989 101.99675606902103 134.0507917692716 H 0.0 **** 0.06
3746 C 133.8811139923779 106.12471182120106 168.08407151611874 C 0.0 **** -0.24
3747 H 133.1234925363824 105.34162324521748 168.12457041792288 H 0.0 **** 0.06
3748 H 133.44539331424699 107.06802528991392 168.41346236079613 H 0.0 **** 0.06
3749 H 134.24242668991428 106.22717716254954 167.06100645543188 H 0.0 **** 0.06
3750 H 134.71162118383387 105.85897928832054 168.73844157217127 H 0.0 **** 0.06
3751 C 110.5490427754018 81.18662686610209 35.071670037186266 C 0.0 **** -0.24
3752 H 110.08198886566674 81.69588242953499 34.228677419529845 H 0.0 **** 0.06
3753 H 110.56667312939362 80.11297161914764 34.88281366764522 H 0.0 **** 0.06
3754 H 109.97826997738252 81.38741364736039 35.97793556478143 H 0.0 **** 0.06
3755 H 111.56864973030468 81.55059320389127 35.19512563940185 H 0.0 **** 0.06
3756 C 102.92218923897667 202.09463023400895 44.482075491994905 C 0.0 **** -0.24
3757 H 103.6582846693197 202.52022926657688 43.7990863703229 H 0.0 **** 0.06
3758 H 102.66867731892683 201.08531708366291 44.157414418875206 H 0.0 **** 0.06
3759 H 102.02579972598602 202.71387547585064 44.48056251089902 H 0.0 **** 0.06
3760 H 103.3390162185309 202.060136581636 45.488272580670255 H 0.0 **** 0.06
3761 C 138.46222897492441 122.16015288839583 151.66256822114053 C 0.0 **** -0.24
3762 H 138.15329821636982 121.4015534817957 152.38094057876134 H 0.0 **** 0.06
3763 H 137.58238162583643 122.66958485417803 151.27020506957587 H 0.0 **** 0.06
3764 H 139.00220144761352 121.68531341494639 150.84313588909822 H 0.0 **** 0.06
3765 H 139.11258309282465 122.88402365240518 152.15409826356705 H 0.0 **** 0.06
3766 C 11.735635574779423 118.42494403875685 172.56887713830218 C 0.0 **** -0.24
3767 H 12.462212581366856 118.76787746519216 171.8323042264842 H 0.0 **** 0.06
3768 H 12.230144264979003 117.77354111352912 173.2908837558782 H 0.0 **** 0.06
3769 H 10.94137169592841 117.87375320860349 172.06557335914738 H 0.0 **** 0.06
3770 H 11.310129767359513 119.28503587394192 173.08646093807957 H 0.0 **** 0.06
3771 C 197.1869209652553 125.97012071951305 97.2643692961427 C 0.0 **** -0.24
3772 H 196.32130511510985 125.32187236607363 97.40186625726902 H 0.0 **** 0.06
3773 H 197.39738678720673 126.49829138974475 98.19418326284328 H 0.0 **** 0.06
3774 H 196.97880315846515 126.6921958885634 96.47457908874712 H 0.0 **** 0.06
3775 H 198.0508803307443 125.36655692409865 96.98541033211934 H 0.0 **** 0.06
3776 C 19.77574981792546 159.620514220728 45.43166428075784 C 0.0 **** -0.24
3777 H 19.906960461624863 159.1241010368931 46.39393497035502 H 0.0 **** 0.06
3778 H 18.853497361947234 159.27220589884806 44.966240964268934 H 0.0 **** 0.06
3779 H 20.620934291384174 159.3861242958964 44.784879388224 H 0.0 **** 0.06
3780 H 19.722940496448018 160.6979310488323 45.58391495761202 H 0.0 **** 0.06
3781 C 23.60320712915444 148.04907342471859 11.556887973338277 C 0.0 **** -0.24
3782 H 23.693292953402022 147.8312867108774 12.621402247061823 H 0.0 **** 0.06
3783 H 22.63868539973282 148.51938973606707 11.3634388810529 H 0.0 **** 0.06
3784 H 23.675734820940818 147.12098483969095 10.989668921246476 H 0.0 **** 0.06
3785 H 24.40412301685504 148.72432409217487 11.255260025716225 H 0.0 **** 0.06
3786 C 10.797659400455757 189.01478689876183 83.20017421144723 C 0.0 **** -0.24
3787 H 11.415327136393614 189.51299824037955 82.45331334488094 H 0.0 **** 0.06
3788 H 10.038617056988187 188.41250013180047 82.70053582708658 H 0.0 **** 0.06
3789 H 10.314146223223986 189.76244624257603 83.82923593847988 H 0.0 **** 0.06
3790 H 11.424069861884846 188.37038728206187 83.81748468019049 H 0.0 **** 0.06
3791 C 4.624702926882719 10.049859972302272 216.7405674744864 C 0.0 **** -0.24
3792 H 4.611332059516087 11.139412284957672 216.77579703649866 H 0.0 **** 0.06
3793 H 4.811517209344004 9.72174030602315 215.717128625748 H 0.0 **** 0.06
3794 H 3.6613081577349647 9.664051432713649 217.07507224163922 H 0.0 **** 0.06
3795 H 5.413461419720647 9.674868106193742 217.39248945693822 H 0.0 **** 0.06
3796 C 4.552628242860806 54.76969929883259 172.60295821489171 C 0.0 **** -0.24
3797 H 4.219275573239386 54.647711651867155 173.63382249218404 H 0.0 **** 0.06
3798 H 5.635668052692068 54.65392467780302 172.55510266441536 H 0.0 **** 0.06
3799 H 4.277567432217111 55.76320687318943 172.24786752406195 H 0.0 **** 0.06
3800 H 4.07838072225907 54.01506265933648 171.9758322618851 H 0.0 **** 0.06
3801 C 0.46246555996842176 14.407435640917313 65.55353708188895 C 0.0 **** -0.24
3802 H 0.9920245468085014 14.929430362675177 64.75694941205079 H 0.0 **** 0.06
3803 H 0.6494219708027131 13.335733994212276 65.47224100868839 H 0.0 **** 0.06
3804 H -0.6072292290358874 14.598003787845073 65.46299434293329 H 0.0 **** 0.06
3805 H 0.8146252446369928 14.765838833400224 66.52011445680489 H 0.0 **** 0.06
3806 C 60.15501086166958 29.573332841111807 147.66664632336284 C 0.0 **** -0.24
3807 H 60.95103664412504 30.119604973455495 147.1615455092603 H 0.0 **** 0.06
3808 H 60.59186464865296 28.863201079267355 148.36883560546568 H 0.0 **** 0.06
3809 H 59.55753774165912 29.036631731861917 146.93048607763336 H 0.0 **** 0.06
3810 H 59.520429427673506 30.27483434240827 148.20782390665352 H 0.0 **** 0.06
3811 C 160.9927717180447 23.688391449220475 8.415495496051193 C 0.0 **** -0.24
3812 H 161.4923067529425 24.504148982017284 7.89177175852393 H 0.0 **** 0.06
3813 H 161.74081603362444 23.036662777144485 8.8670512275269 H 0.0 **** 0.06
3814 H 160.39212596435286 23.116645761707176 7.707403199577982 H 0.0 **** 0.06
3815 H 160.34775836461105 24.09695440771719 9.19282374350422 H 0.0 **** 0.06
3816 C 131.09153822143924 132.17611453724106 212.2466010858273 C 0.0 **** -0.24
3817 H 130.41963713935928 132.85196767430529 211.71698554586777 H 0.0 **** 0.06
3818 H 131.92217430693603 131.9064504524183 211.59519100532958 H 0.0 **** 0.06
3819 H 130.54787618198765 131.2760490003244 212.53428278252795 H 0.0 **** 0.06
3820 H 131.47360154675732 132.67021897516292 213.1390805150557 H 0.0 **** 0.06
3821 C 188.697812345388 6.056161275088257 72.42101572809771 C 0.0 **** -0.24
3822 H 188.9686968784189 5.004896333203895 72.32641806466565 H 0.0 **** 0.06
3823 H 187.62513051531027 6.171186128545102 72.26110908671139 H 0.0 **** 0.06
3824 H 189.24056821680483 6.638439669480334 71.67639899994136 H 0.0 **** 0.06
3825 H 188.95701547508978 6.410241147007099 73.41873678975897 H 0.0 **** 0.06
3826 C 27.2264306118509 25.56014734098298 151.81556364618922 C 0.0 **** -0.24
3827 H 27.492854338982227 25.964644658071535 150.83876148321445 H 0.0 **** 0.06
3828 H 27.67442733315454 24.573524576245745 151.93395957160027 H 0.0 **** 0.06
3829 H 26.14163353464471 25.47831422337319 151.89103415051 H 0.0 **** 0.06
3830 H 27.595627170548767 26.224406227868883 152.59662392581095 H 0.0 **** 0.06
3831 C 181.7473705349981 165.20653134496408 112.34319816557779 C 0.0 **** -0.24
3832 H 182.2536563571504 165.9740835037125 111.75725576379746 H 0.0 **** 0.06
3833 H 182.2975531236098 165.03498307420378 113.26927401263724 H 0.0 **** 0.06
3834 H 181.704660639628 164.2818323194789 111.76888667306032 H 0.0 **** 0.06
3835 H 180.73538855261262 165.53685851740346 112.57695136683212 H 0.0 **** 0.06
3836 C 208.11086366153307 46.58180083577054 195.385067627107 C 0.0 **** -0.24
3837 H 207.88033931340078 45.54947213497006 195.12413450308395 H 0.0 **** 0.06
3838 H 209.1839396903934 46.749396284144964 195.28973270048334 H 0.0 **** 0.06
3839 H 207.80348615833327 46.774088778677125 196.4130105022383 H 0.0 **** 0.06
3840 H 207.57693169867258 47.253894513260974 194.7139701166907 H 0.0 **** 0.06
3841 C 216.19529292126677 14.943245414012694 55.125882010956545 C 0.0 **** -0.24
3842 H 216.14435520110794 14.65181531097943 56.174726599956614 H 0.0 **** 0.06
3843 H 217.03679743405638 14.43995171023954 54.64976255144586 H 0.0 **** 0.06
3844 H 216.33004998344424 16.022822785980367 55.054872302235296 H 0.0 **** 0.06
3845 H 215.27057705601436 14.659131551875959 54.624455043103964 H 0.0 **** 0.06
3846 C 40.93846045740128 214.23306239027153 166.03471759580614 C 0.0 **** -0.24
3847 H 41.411623129707166 214.54582787733958 166.96662961271358 H 0.0 **** 0.06
3848 H 41.70201332976471 214.08995046499572 165.27086871989394 H 0.0 **** 0.06
3849 H 40.23652680480676 215.00050184644033 165.7095361794918 H 0.0 **** 0.06
3850 H 40.40493424766677 213.29638075313628 166.19533648035224 H 0.0 **** 0.06
3851 C 101.76353392844128 168.43189252231176 169.31267586182082 C 0.0 **** -0.24
3852 H 100.83534069120223 168.02925480748712 169.71897049915697 H 0.0 **** 0.06
3853 H 101.67533246662846 169.51352173209065 169.20948722132124 H 0.0 **** 0.06
3854 H 101.95506468767142 167.987139314631 168.33605070737323 H 0.0 **** 0.06
3855 H 102.58697362661563 168.19567304595716 169.98597931767029 H 0.0 **** 0.06
3856 C 5.600113376611063 204.27548049548543 68.40141464910835 C 0.0 **** -0.24
3857 H 5.403423305978002 205.27144130375575 68.7992754727502 H 0.0 **** 0.06
3858 H 6.610030982560659 204.23983945704575 67.99336774553603 H 0.0 **** 0.06
3859 H 4.880548665738772 204.05123641889898 67.61451481842056 H 0.0 **** 0.06
3860 H 5.504475678134106 203.54095354411922 69.20127571889964 H 0.0 **** 0.06
3861 C 8.449012056808783 68.1636578252519 147.6123628931253 C 0.0 **** -0.24
3862 H 8.563882703550462 68.56348331095782 146.60513380147466 H 0.0 **** 0.06
3863 H 9.285858159545569 67.50182388695998 147.8375308103432 H 0.0 **** 0.06
3864 H 7.515674357078751 67.60484260317065 147.67671670324995 H 0.0 **** 0.06
3865 H 8.431645705960591 68.9848349528558 148.3291485493142 H 0.0 **** 0.06
3866 C 19.742694289071693 189.35386222750407 144.38882097463642 C 0.0 **** -0.24
3867 H 20.398364494668442 188.9693298319826 145.17014840746998 H 0.0 **** 0.06
3868 H 18.989032726845153 188.60474989629395 144.14579195618097 H 0.0 **** 0.06
3869 H 20.331911212230665 189.57995069142012 143.50009966799786 H 0.0 **** 0.06
3870 H 19.251715499178275 190.26185621638132 144.7401084558952 H 0.0 **** 0.06
3871 C 19.089890302649792 24.934654054741515 215.72737676733965 C 0.0 **** -0.24
3872 H 18.53880510567467 25.844951943854127 215.9620680194074 H 0.0 **** 0.06
3873 H 20.095268695087782 25.195391313860185 215.39337146180338 H 0.0 **** 0.06
3874 H 18.573270382211433 24.391100683281365 214.9363851584434 H 0.0 **** 0.06
3875 H 19.154039025275495 24.309330193071006 216.61752795455462 H 0.0 **** 0.06
3876 C 39.30139232213452 126.77461146561068 72.25330563811804 C 0.0 **** -0.24
3877 H 38.43570635410663 126.29529460988677 71.79637972458943 H 0.0 **** 0.06
3878 H 39.33616720647848 126.52566264604256 73.31386036415523 H 0.0 **** 0.06
3879 H 39.22240784093725 127.85531904902057 72.13605929762468 H 0.0 **** 0.06
3880 H 40.210067442624734 126.42145728262092 71.7669798573113 H 0.0 **** 0.06
3881 C 37.60448907618864 161.31669599325818 176.00829774787002 C 0.0 **** -0.24
3882 H 37.650099510784784 160.8589591367044 176.99679246491345 H 0.0 **** 0.06
3883 H 37.96161589640903 162.34600334799308 176.0675681579189 H 0.0 **** 0.06
3884 H 36.57473079375356 161.30944553155746 175.6522100721115 H 0.0 **** 0.06
3885 H 38.23182448777334 160.75323160319715 175.31866213802653 H 0.0 **** 0.06
3886 C 216.53997766366336 137.1102044160521 123.03976975734612 C 0.0 **** -0.24
3887 H 217.1877676286328 136.42220019228284 123.58254823641299 H 0.0 **** 0.06
3888 H 216.1031809623577 136.59841871133864 122.18136996957368 H 0.0 **** 0.06
3889 H 217.12483380993172 137.96345619630404 122.6956334013861 H 0.0 **** 0.06
3890 H 215.74502307978025 137.4569726523299 123.69990999590233 H 0.0 **** 0.06
3891 C 88.94676031603048 115.98684827113316 81.50660344309172 C 0.0 **** -0.24
3892 H 89.403157210696 116.97646610020182 81.5234129810792 H 0.0 **** 0.06
3893 H 88.31687979790134 115.89272433383526 80.62231596438458 H 0.0 **** 0.06
3894 H 88.34065094185733 115.85177121476615 82.40219025912627 H 0.0 **** 0.06
3895 H 89.7282157676958 115.22728730840144 81.47938834163234 H 0.0 **** 0.06
3896 C 124.53126155725961 210.1405181990982 195.28645190118937 C 0.0 **** -0.24
3897 H 124.72815681815713 210.10131787199418 196.357144062012 H 0.0 **** 0.06
3898 H 125.3028595875109 210.73524851349543 194.79659020104572 H 0.0 **** 0.06
3899 H 123.55560878177455 210.59714199008823 195.11362959762855 H 0.0 **** 0.06
3900 H 124.53659084412477 209.1295981238852 194.87880212751946 H 0.0 **** 0.06
3901 C 143.17724344641698 79.92058043428813 27.781919653803 C 0.0 **** -0.24
3902 H 143.15591197697472 80.98597119807204 27.54870589777296 H 0.0 **** 0.06
3903 H 143.82058286166352 79.75073129377262 28.645722186938002 H 0.0 **** 0.06
3904 H 143.56376564375546 79.36905714044275 26.925841528912912 H 0.0 **** 0.06
3905 H 142.16714975565804 79.57942927086935 28.007987676275206 H 0.0 **** 0.06
3906 C 182.41626205321728 138.96195166252255 186.5064766565322 C 0.0 **** -0.24
3907 H 181.50270274299555 139.06803979417037 185.92107949304034 H 0.0 **** 0.06
3908 H 182.16146547836726 138.67314557813808 187.52639375880148 H 0.0 **** 0.06
3909 H 182.95141354316922 139.91148399774795 186.51914017833099 H 0.0 **** 0.06
3910 H 183.04743781395877 138.19440006857639 186.05870903281834 H 0.0 **** 0.06
3911 C 100.00529584881345 200.4626938548308 92.75274615308278 C 0.0 **** -0.24
3912 H 99.18713399403661 199.7477297733481 92.83692851794841 H 0.0 **** 0.06
3913 H 100.92776187687106 199.93132977635995 92.51655174924566 H 0.0 **** 0.06
3914 H 100.12277445002086 200.99241901894052 93.69870766653345 H 0.0 **** 0.06
3915 H 99.78339277873776 201.17782978294036 91.96047992724208 H 0.0 **** 0.06
3916 C 131.97738256483223 200.65286460211024 136.75840873109462 C 0.0 **** -0.24
3917 H 131.4440681029812 199.91009375862166 137.35212524971428 H 0.0 **** 0.06
3918 H 131.58942298307306 200.65102001834694 135.73952301312937 H 0.0 **** 0.06
3919 H 133.04012135498016 200.40870490142942 136.74352717963325 H 0.0 **** 0.06
3920 H 131.83741732728248 201.63896386315733 137.20060224798527 H 0.0 **** 0.06
3921 C 118.95937574087411 168.87130149032112 114.32980395743895 C 0.0 **** -0.24
3922 H 119.28595801824709 167.87049425171705 114.04675974054881 H 0.0 **** 0.06
3923 H 117.91261820630326 169.00203907176967 114.05337403141876 H 0.0 **** 0.06
3924 H 119.5680109569294 169.61261540596553 113.81169007576956 H 0.0 **** 0.06
3925 H 119.0697776640461 168.99806763274248 115.40652810434163 H 0.0 **** 0.06
3926 C 58.15134097836318 105.61128534066019 164.40518888635256 C 0.0 **** -0.24
3927 H 57.51274458628478 106.45065554746186 164.6814106266869 H 0.0 **** 0.06
3928 H 58.63130710786612 105.81921823477988 163.4483280913043 H 0.0 **** 0.06
3929 H 57.5476763596767 104.70791538295204 164.32091625951796 H 0.0 **** 0.06
3930 H 58.91437151738933 105.46761603934705 165.17072443652023 H 0.0 **** 0.06
3931 C 123.45666160150331 128.4589949358015 25.17959771846745 C 0.0 **** -0.24
3932 H 122.99933872115746 127.48880312112694 25.376612392136593 H 0.0 **** 0.06
3933 H 122.84394686859768 129.24467760114868 25.622583673698585 H 0.0 **** 0.06
3934 H 123.52684369717373 128.6153909001619 24.103354295553018 H 0.0 **** 0.06
3935 H 124.45452603845327 128.48518678470793 25.616999916725717 H 0.0 **** 0.06
3936 C 122.50467626257806 58.42863157271165 112.44787293103407 C 0.0 **** -0.24
3937 H 121.89940028095576 59.290392791362265 112.16524112495627 H 0.0 **** 0.06
3938 H 123.25251411850529 58.73574093493775 113.17852435690277 H 0.0 **** 0.06
3939 H 123.00237847751283 58.0293343337994 111.56427327430252 H 0.0 **** 0.06
3940 H 121.86408897553333 57.661701727918526 112.88207180237147 H 0.0 **** 0.06
3941 C 164.00970217934383 37.05355303273501 31.226609439671165 C 0.0 **** -0.24
3942 H 165.04426579818488 36.730909593011546 31.34351309989745 H 0.0 **** 0.06
3943 H 163.92785867275268 37.69903969266366 30.352331027286766 H 0.0 **** 0.06
3944 H 163.69883338679216 37.601947105838434 32.11580833203209 H 0.0 **** 0.06
3945 H 163.37035447970118 36.1806493828326 31.09576270000491 H 0.0 **** 0.06
3946 C 82.08001635712878 148.52741781626753 155.62901255870509 C 0.0 **** -0.24
3947 H 83.06608008420307 148.0791608254563 155.7512505831475 H 0.0 **** 0.06
3948 H 81.99073635748096 148.93973818927242 154.62367523315032 H 0.0 **** 0.06
3949 H 81.948101886296 149.32287906293794 156.36227384195257 H 0.0 **** 0.06
3950 H 81.31494171297999 147.76545233736266 155.77883758722527 H 0.0 **** 0.06
3951 C 39.68860443906409 149.46228406911456 154.88709343164584 C 0.0 **** -0.24
3952 H 40.307639544693046 150.27827965357017 154.51467985139897 H 0.0 **** 0.06
3953 H 39.24584118241424 148.9292326696842 154.04613087070732 H 0.0 **** 0.06
3954 H 38.897032952837534 149.86656673932765 155.51917037788934 H 0.0 **** 0.06
3955 H 40.30318449358967 148.77607660792245 155.46959391228705 H 0.0 **** 0.06
3956 C 183.35176022307078 182.08030131853883 148.81371159704975 C 0.0 **** -0.24
3957 H 183.85922021789798 181.12092891086496 148.91003946550506 H 0.0 **** 0.06
3958 H 182.8346418706607 182.12288936374975 147.85419659714984 H 0.0 **** 0.06
3959 H 184.08296820250513 182.88678250264599 148.8688489473813 H 0.0 **** 0.06
3960 H 182.62811866366883 182.1898451373439 149.62154399577554 H 0.0 **** 0.06
3961 C 137.42388247832338 72.01152921132848 154.20860563886038 C 0.0 **** -0.24
3962 H 137.0696037530518 71.79665426424327 153.2007581963441 H 0.0 **** 0.06
3963 H 137.084895828451 73.00383914679969 154.5083642127288 H 0.0 **** 0.06
3964 H 138.51271729948348 71.9791025265452 154.22537938393054 H 0.0 **** 0.06
3965 H 137.02726155905447 71.26750256358099 154.89853122165908 H 0.0 **** 0.06
3966 C 1.1878287130610374 66.04996467125775 12.3339301434643 C 0.0 **** -0.24
3967 H 1.162615083346509 66.04190264612234 13.424256441954896 H 0.0 **** 0.06
3968 H 2.1326999245679303 65.62955537332626 11.990672893279353 H 0.0 **** 0.06
3969 H 1.0938710748586118 67.07500080339871 11.977040796102315 H 0.0 **** 0.06
3970 H 0.3609847052910311 65.4534733476513 11.947835295286438 H 0.0 **** 0.06
3971 C 77.7452178655209 90.18410574988495 196.31868711492535 C 0.0 **** -0.24
3972 H 78.44410415593693 90.96472775865992 196.61911409204382 H 0.0 **** 0.06
3973 H 76.77127519156953 90.62967061442403 196.11084873284148 H 0.0 **** 0.06
3974 H 77.647825949275 89.45487835152393 197.12283968109872 H 0.0 **** 0.06
3975 H 78.11762441125764 89.68957171634194 195.42160596510035 H 0.0 **** 0.06
3976 C 110.33728730963243 199.25831674751382 84.095604318818 C 0.0 **** -0.24
3977 H 109.40673268623023 199.8139862466122 84.21060272877173 H 0.0 **** 0.06
3978 H 110.12457654423083 198.28015545071042 83.66335235794543 H 0.0 **** 0.06
3979 H 110.80715211048111 199.13174020574263 85.07077331887331 H 0.0 **** 0.06
3980 H 111.00930759683534 199.80882932032966 83.43759385552386 H 0.0 **** 0.06
3981 C 195.41011257782688 59.765630139490156 200.99609376108515 C 0.0 **** -0.24
3982 H 194.6860873294815 60.57584638656323 200.90453380590822 H 0.0 **** 0.06
3983 H 194.99367567208938 58.85557406929922 200.56466429594838 H 0.0 **** 0.06
3984 H 195.63583108381906 59.59934729710969 202.04931325630216 H 0.0 **** 0.06
3985 H 196.3235084941262 60.03476007577393 200.46623802276875 H 0.0 **** 0.06
3986 C 37.08402024831531 133.62288454827547 156.23078831446026 C 0.0 **** -0.24
3987 H 36.05429537954399 133.80493407272076 156.53613856976233 H 0.0 **** 0.06
3988 H 37.57827629320481 132.99751721592918 156.97583719777657 H 0.0 **** 0.06
3989 H 37.611359563051224 134.57317070124185 156.1481408167412 H 0.0 **** 0.06
3990 H 37.093968450259865 133.11577822850268 155.26580678293084 H 0.0 **** 0.06
3991 C 181.62244482952818 5.817139605756836 21.515474279932704 C 0.0 **** -0.24
3992 H 180.99474477884257 6.277608581379923 20.752520083323702 H 0.0 **** 0.06
3993 H 182.00953410337328 4.868936404430372 21.14369651900526 H 0.0 **** 0.06
3994 H 181.0301989965212 5.641126241457528 22.414218586637205 H 0.0 **** 0.06
3995 H 182.45272581577308 6.48241895129226 21.751603495543392 H 0.0 **** 0.06
3996 C 62.38513452638364 145.97177714770947 44.57274765572254 C 0.0 **** -0.24
3997 H 61.92701925304385 146.94112023186773 44.77081716063259 H 0.0 **** 0.06
3998 H 61.61030324996739 145.20665693222912 44.52627526904001 H 0.0 **** 0.06
3999 H 63.08691526413105 145.7312914595605 45.37084574043047 H 0.0 **** 0.06
4000 H 62.91655387148057 146.00913104444612 43.620874065065095 H 0.0 **** 0.06
4001 C 152.76040686013334 52.790621164904465 54.47638178639126 C 0.0 **** -0.24
4002 H 153.034718345749 52.06446764924988 53.71135079852006 H 0.0 **** 0.06
4003 H 153.20825079236778 52.50320632155818 55.4274331254461 H 0.0 **** 0.06
4004 H 151.67487605084784 52.81772119415113 54.57878594898774 H 0.0 **** 0.06
4005 H 153.12280293993751 53.77684815708358 54.186965940778975 H 0.0 **** 0.06
4006 C 51.43308928720758 209.3695989221111 109.19144864576153 C 0.0 **** -0.24
4007 H 51.273769552065104 209.1993897099357 110.25628487021537 H 0.0 **** 0.06
4008 H 50.4713300326392 209.37615816006414 108.67668920535225 H 0.0 **** 0.06
4009 H 52.05618264215043 208.57292871474422 108.78615323131847 H 0.0 **** 0.06
4010 H 51.92887799185155 210.32884161362173 109.04677959202785 H 0.0 **** 0.06
4011 C 140.55196443541183 6.929760163036576 38.636480751230025 C 0.0 **** -0.24
4012 H 139.5457963761039 6.557087520804458 38.44637535178016 H 0.0 **** 0.06
4013 H 140.98704339273672 6.390431624260486 39.47743089977338 H 0.0 **** 0.06
4014 H 140.5065243957692 7.99348279077816 38.8707018353403 H 0.0 **** 0.06
4015 H 141.16773954235703 6.779156955027929 37.749631365784225 H 0.0 **** 0.06
4016 C 63.466527653360856 196.7893205173337 65.77097199099057 C 0.0 **** -0.24
4017 H 64.08779164830884 196.84658797312656 66.66451752226186 H 0.0 **** 0.06
4018 H 62.5075996733318 196.33664400970642 66.02499415576608 H 0.0 **** 0.06
4019 H 63.96841264397072 196.1797061486352 65.01933183722343 H 0.0 **** 0.06
4020 H 63.30346909044279 197.79112949643556 65.37656639836382 H 0.0 **** 0.06
4021 C 26.45026717942011 114.50932808505029 10.492697172218016 C 0.0 **** -0.24
4022 H 25.673654540651313 113.7459973759175 10.525149495739328 H 0.0 **** 0.06
4023 H 25.991502123908532 115.49064817478272 10.371574745006043 H 0.0 **** 0.06
4024 H 27.1171421951841 114.31349150862191 9.652319337077941 H 0.0 **** 0.06
4025 H 27.02073307326117 114.48610596147786 11.42169585303968 H 0.0 **** 0.06
4026 C 107.01248195953808 204.657939909018 182.98822071929743 C 0.0 **** -0.24
4027 H 108.0802084417874 204.52404503163763 183.16177318206394 H 0.0 **** 0.06
4028 H 106.45586974154317 203.9119114222509 183.55543538101512 H 0.0 **** 0.06
4029 H 106.80040818575428 204.54014693118168 181.92541938767414 H 0.0 **** 0.06
4030 H 106.71562670255433 205.65681907693403 183.3088864506243 H 0.0 **** 0.06
4031 C 65.24816827947846 7.609715443966422 182.43010690190596 C 0.0 **** -0.24
4032 H 65.433946252789 8.672393893075508 182.27068226782845 H 0.0 **** 0.06
4033 H 66.10957180869109 7.035985953362768 182.08579077419162 H 0.0 **** 0.06
4034 H 64.36278549360789 7.307817935021632 181.8712291503832 H 0.0 **** 0.06
4035 H 65.089769259461 7.424168984076971 183.49230433783504 H 0.0 **** 0.06
4036 C 150.73722076772594 114.42582710529331 212.5316187248241 C 0.0 **** -0.24
4037 H 150.6889543938421 113.48605127182611 211.9816070201619 H 0.0 **** 0.06
4038 H 150.0568678381909 114.38384126506315 213.38274634945066 H 0.0 **** 0.06
4039 H 150.44713168119466 115.2459391174753 211.8739305265693 H 0.0 **** 0.06
4040 H 151.75504602217734 114.58788152717403 212.88594237187954 H 0.0 **** 0.06
4041 C 6.403850563900846 34.5311994995468 47.331751420475655 C 0.0 **** -0.24
4042 H 5.52529106119399 34.21514298214328 47.894771513943056 H 0.0 **** 0.06
4043 H 7.215214659473972 34.76076558592973 48.02349188989689 H 0.0 **** 0.06
4044 H 6.160933977353636 35.41847961964362 46.748536512824614 H 0.0 **** 0.06
4045 H 6.712650927572923 33.72911546775174 46.661819582247375 H 0.0 **** 0.06
4046 C 146.84388299555724 26.259048584437835 78.39994911558864 C 0.0 **** -0.24
4047 H 147.62713555421772 26.359842971959694 79.15030238788631 H 0.0 **** 0.06
4048 H 145.88282607307644 26.118017405496232 78.89509954223365 H 0.0 **** 0.06
4049 H 147.05611964690826 25.39637305587422 77.7664984752389 H 0.0 **** 0.06
4050 H 146.80961777324757 27.158889788447254 77.78665487919852 H 0.0 **** 0.06
4051 C 71.5290065152978 8.627787996801302 145.68192197358042 C 0.0 **** -0.24
4052 H 71.00885313755975 9.581075474475597 145.77717211823528 H 0.0 **** 0.06
4053 H 72.46375980831363 8.66610695604517 146.2402033139552 H 0.0 **** 0.06
4054 H 71.74184141893551 8.434921453329835 144.6298853978031 H 0.0 **** 0.06
4055 H 70.90033820179116 7.830292399918974 146.07779450157614 H 0.0 **** 0.06
4056 C 84.60712039949982 70.3782213680105 99.3750301487292 C 0.0 **** -0.24
4057 H 84.62734438504367 71.0463572694725 100.23590559917108 H 0.0 **** 0.06
4058 H 85.52347960125547 70.50240476992856 98.79718635618508 H 0.0 **** 0.06
4059 H 83.74744436551947 70.61709703933103 98.74936118048697 H 0.0 **** 0.06
4060 H 84.53143041580938 69.34545349655455 99.71745636267929 H 0.0 **** 0.06
4061 C 58.833795154817835 159.95890539411715 120.33004331484592 C 0.0 **** -0.24
4062 H 57.931764742631515 160.35837510119958 120.79403171163419 H 0.0 **** 0.06
4063 H 59.689085057873 160.57558538968902 120.60778260966914 H 0.0 **** 0.06
4064 H 58.71740271799658 159.96585416677706 119.2454988569347 H 0.0 **** 0.06
4065 H 58.995587063538835 158.93678211164382 120.67056862884256 H 0.0 **** 0.06
4066 C 50.384450508772716 106.30270939036096 97.39590028586633 C 0.0 **** -0.24
4067 H 49.9845195537946 105.73843347897356 96.55384028080528 H 0.0 **** 0.06
4068 H 49.65282572508528 106.31538198901261 98.20466956212272 H 0.0 **** 0.06
4069 H 50.5955417174975 107.3243564069107 97.08064958388366 H 0.0 **** 0.06
4070 H 51.3036280533388 105.83157938582023 97.74484627842088 H 0.0 **** 0.06
4071 C 103.05188133372921 214.51561657555058 79.090086905786 C 0.0 **** -0.24
4072 H 103.82381080361931 213.9374043186935 79.59861775849407 H 0.0 **** 0.06
4073 H 103.22285359788718 214.48214634346814 78.01407325994313 H 0.0 **** 0.06
4074 H 103.08869354165579 215.5500779073477 79.43241242388336 H 0.0 **** 0.06
4075 H 102.07309060714233 214.0924070596992 79.31664498236773 H 0.0 **** 0.06
4076 C 128.5494977194453 50.59828115030899 3.604584714015502 C 0.0 **** -0.24
4077 H 129.33740162054335 50.45487440495059 4.344362446586111 H 0.0 **** 0.06
4078 H 127.61599522119049 50.844531707119316 4.110606340085539 H 0.0 **** 0.06
4079 H 128.420720250971 49.68041764602282 3.030679588384679 H 0.0 **** 0.06
4080 H 128.82466913533113 51.41179399776507 2.933001745884546 H 0.0 **** 0.06
4081 C 54.707178511031344 145.3901721407105 0.517884409935732 C 0.0 **** -0.24
4082 H 54.48903663756042 144.52625653094623 1.1451722764226702 H 0.0 **** 0.06
4083 H 55.77980066916909 145.4457607664072 0.3345984803993929 H 0.0 **** 0.06
4084 H 54.377205204006415 146.2982153621615 1.0228599209829667 H 0.0 **** 0.06
4085 H 54.18049845591152 145.29105746694324 -0.4320500945827348 H 0.0 **** 0.06
4086 C 62.319930927433575 77.68883272417041 149.69053349279125 C 0.0 **** -0.24
4087 H 61.43066203043708 78.03158907428467 150.21956756626366 H 0.0 **** 0.06
4088 H 62.025649329573355 77.21065586632857 148.75602272330417 H 0.0 **** 0.06
4089 H 62.858646568223264 76.97335731280539 150.31183014593915 H 0.0 **** 0.06
4090 H 62.964361035229444 78.54165658216236 149.47436813755166 H 0.0 **** 0.06
4091 C 176.8611820322339 201.3070453346586 211.09247704362397 C 0.0 **** -0.24
4092 H 176.38204887947785 200.32783022665944 211.12281434772817 H 0.0 **** 0.06
4093 H 177.6368113809893 201.35509632462316 211.85761714419567 H 0.0 **** 0.06
4094 H 176.1166175700662 202.0807445337806 211.28019078755543 H 0.0 **** 0.06
4095 H 177.30824399925683 201.46232521363714 210.1113384865505 H 0.0 **** 0.06
4096 C 107.17161304138402 175.87018282290495 56.72289848374932 C 0.0 **** -0.24
4097 H 106.57844188458053 175.91528705342603 57.63540913994959 H 0.0 **** 0.06
4098 H 106.54629043835767 175.52102681090298 55.90026740939797 H 0.0 **** 0.06
4099 H 108.00418178037042 175.18150025999375 56.864301270115064 H 0.0 **** 0.06
4100 H 107.55730871040721 176.86305482830278 56.490652547094356 H 0.0 **** 0.06
4101 C 82.65909785305598 198.41565857398604 193.67868239820535 C 0.0 **** -0.24
4102 H 82.02380000966502 197.54222250854386 193.8280116924986 H 0.0 **** 0.06
4103 H 82.9909867093989 198.44904145522213 192.64070382595264 H 0.0 **** 0.06
4104 H 83.52631801278528 198.3504010104471 194.3351515655694 H 0.0 **** 0.06
4105 H 82.09510090044864 199.31941515869113 193.9092655905785 H 0.0 **** 0.06
4106 C 196.1112649405742 13.267423019499688 136.9151849598793 C 0.0 **** -0.24
4107 H 195.32334389194094 13.12952021777005 136.17509282636814 H 0.0 **** 0.06
4108 H 196.41034815769598 14.315936949508455 136.93560367455535 H 0.0 **** 0.06
4109 H 196.96987960551775 12.64996667818076 136.65006673813792 H 0.0 **** 0.06
4110 H 195.74272119057292 12.974971119838017 137.89798021462337 H 0.0 **** 0.06
4111 C 64.5851984920875 50.215110289924155 107.19648447713634 C 0.0 **** -0.24
4112 H 65.25545366602898 49.47591608270096 106.75769516107347 H 0.0 **** 0.06
4113 H 63.55711970247967 49.86122409331216 107.1239125281735 H 0.0 **** 0.06
4114 H 64.68466229762504 51.158603796974376 106.65986907579226 H 0.0 **** 0.06
4115 H 64.84594441828932 50.364165284291005 108.2446148692252 H 0.0 **** 0.06
4116 C 48.78303525454196 6.775061588901906 75.69326524105509 C 0.0 **** -0.24
4117 H 48.08991077091319 6.825756071234167 74.8527185854943 H 0.0 **** 0.06
4118 H 49.33993210509061 7.70969732773888 75.76148601568394 H 0.0 **** 0.06
4119 H 49.47635696522309 5.948570065955039 75.54203733327591 H 0.0 **** 0.06
4120 H 48.224122917406774 6.617116436803229 76.61587267236251 H 0.0 **** 0.06
4121 C 122.32458198357808 183.9787335419398 32.45320699752767 C 0.0 **** -0.24
4122 H 122.25951755878712 184.2216468210891 31.393227340186726 H 0.0 **** 0.06
4123 H 123.34831837924445 184.13131976035478 32.798533533730875 H 0.0 **** 0.06
4124 H 122.04158958747784 182.93664106486858 32.604906456234716 H 0.0 **** 0.06
4125 H 121.65138840810941 184.62400032554666 33.01640794011341 H 0.0 **** 0.06
4126 C 199.7340006784051 64.5189403751913 45.367450449418186 C 0.0 **** -0.24
4127 H 199.81384052186428 63.683712333348126 46.06257190531019 H 0.0 **** 0.06
4128 H 199.31135308274952 65.38144327752207 45.88288414244829 H 0.0 **** 0.06
4129 H 199.08808640039626 64.23963223969776 44.53573966541474 H 0.0 **** 0.06
4130 H 200.7242013087875 64.77185391070884 44.988803400982846 H 0.0 **** 0.06
4131 C 38.46916026318655 211.1306984779274 92.37320012767857 C 0.0 **** -0.24
4132 H 38.545697791927296 211.7479214916292 93.2684637192446 H 0.0 **** 0.06
4133 H 38.394376618415095 210.081629579513 92.66040214427893 H 0.0 **** 0.06
4134 H 39.3550436536604 211.27676123631196 91.75528231509624 H 0.0 **** 0.06
4135 H 37.58069436585072 211.41706767149645 91.80963718903241 H 0.0 **** 0.06
4136 C 164.4960743470162 38.16159996268833 142.37640310752641 C 0.0 **** -0.24
4137 H 164.6159267869706 37.19418571622445 141.88856378212932 H 0.0 **** 0.06
4138 H 163.43918069090444 38.42758209478933 142.3991944417461 H 0.0 **** 0.06
4139 H 165.05026454718916 38.918789380880426 141.82213644209247 H 0.0 **** 0.06
4140 H 164.87860653104622 38.103872329190764 143.39559042608948 H 0.0 **** 0.06
4141 C 28.561241382753735 22.133994575757015 135.47480770226997 C 0.0 **** -0.24
4142 H 28.26813006029502 21.896671376887753 134.45202982212083 H 0.0 **** 0.06
4143 H 29.613443295033463 22.41795134114841 135.4945264404381 H 0.0 **** 0.06
4144 H 28.408060276553925 21.26000295846808 136.10864944502617 H 0.0 **** 0.06
4145 H 27.95404604984725 22.9607761488667 135.8439055229669 H 0.0 **** 0.06
4146 C 7.301449557560517 57.55453791403977 131.08133809139548 C 0.0 **** -0.24
4147 H 7.112906746605688 56.607344397599036 131.5856972596044 H 0.0 **** 0.06
4148 H 7.8001287969889574 57.36545113024451 130.12915933114664 H 0.0 **** 0.06
4149 H 7.938486646773811 58.17892435220696 131.7078199030516 H 0.0 **** 0.06
4150 H 6.355117156481668 58.06467427284282 130.90062554480215 H 0.0 **** 0.06
4151 C 49.122694337564326 24.6521063541324 71.58867985413872 C 0.0 **** -0.24
4152 H 49.58435045304955 25.412805555181478 72.21840717397595 H 0.0 **** 0.06
4153 H 48.04388338117428 24.653910565971813 71.74863242274358 H 0.0 **** 0.06
4154 H 49.527620547477 23.673560315139184 71.8465975729635 H 0.0 **** 0.06
4155 H 49.33533407933419 24.868849838979372 70.54166517216828 H 0.0 **** 0.06
4156 C 194.66026627406774 102.41877582443209 151.1316143542706 C 0.0 **** -0.24
4157 H 195.13580660386535 101.90945150920476 150.2930165453825 H 0.0 **** 0.06
4158 H 195.1887552652275 102.17339631896488 152.0528143442275 H 0.0 **** 0.06
4159 H 193.6220654411706 102.0957168422828 151.21002395778623 H 0.0 **** 0.06
4160 H 194.6936114446125 103.49596915876981 150.9674413907989 H 0.0 **** 0.06
4161 C 201.09080690897662 114.81801266238871 197.72068603081158 C 0.0 **** -0.24
4162 H 201.42962592378302 113.78609876493049 197.80106940137566 H 0.0 **** 0.06
4163 H 201.33990487419874 115.35467071167467 198.63663498898077 H 0.0 **** 0.06
4164 H 200.01105856458437 114.83568105235368 197.57161060577968 H 0.0 **** 0.06
4165 H 201.5824774695095 115.2967157153981 196.87428330757328 H 0.0 **** 0.06
4166 C 182.4745503761191 136.0404939023137 147.16170354463043 C 0.0 **** -0.24
4167 H 181.78454444486155 136.27436370873556 147.97242351144166 H 0.0 **** 0.06
4168 H 182.10636143519747 135.17652486206765 146.60845085570895 H 0.0 **** 0.06
4169 H 183.45786686012843 135.81508367980427 147.57593184029042 H 0.0 **** 0.06
4170 H 182.55059813255875 136.89699551370438 146.49129182231366 H 0.0 **** 0.06
4171 C 5.707150765437163 129.39593881501236 138.54194178011346 C 0.0 **** -0.24
4172 H 5.693820005670659 129.61097371929446 137.47387558279087 H 0.0 **** 0.06
4173 H 6.726058831635257 129.1652309552863 138.8524886659369 H 0.0 **** 0.06
4174 H 5.062285870543725 128.5420249622785 138.74851508223452 H 0.0 **** 0.06
4175 H 5.347554402287031 130.26543414018505 139.09202401825274 H 0.0 **** 0.06
4176 C 198.858942077251 158.07655319723347 34.38133421935149 C 0.0 **** -0.24
4177 H 199.87914692413142 157.93758391718586 34.02220643815741 H 0.0 **** 0.06
4178 H 198.176415403531 157.4793368420652 33.77688480253812 H 0.0 **** 0.06
4179 H 198.5881396363974 159.1296301859395 34.303385292038314 H 0.0 **** 0.06
4180 H 198.79548179670985 157.76081514930365 35.42279109255426 H 0.0 **** 0.06
4181 C 122.87462347741496 127.4008940236405 106.85828364528123 C 0.0 **** -0.24
4182 H 123.79363096606073 127.2258113374363 106.2979886842345 H 0.0 **** 0.06
4183 H 123.09686044788685 127.41104536617182 107.92619227746155 H 0.0 **** 0.06
4184 H 122.1605497654727 126.60628390293708 106.64259029342861 H 0.0 **** 0.06
4185 H 122.44903260325424 128.36090059231452 106.56582692121236 H 0.0 **** 0.06
4186 C 81.87604289360115 111.02036253898432 53.765179432716096 C 0.0 **** -0.24
4187 H 81.82722624681111 110.972266038699 52.67761987673617 H 0.0 **** 0.06
4188 H 82.63405109404613 111.74470646754004 54.06385079702886 H 0.0 **** 0.06
4189 H 82.13513132814984 110.03848020485803 54.161101646666594 H 0.0 **** 0.06
4190 H 80.90673659320959 111.3257979671849 54.15909773698179 H 0.0 **** 0.06
4191 C 101.52244452806711 53.95915758912743 0.15228246177998273 C 0.0 **** -0.24
4192 H 101.10181963549682 53.008454633626144 -0.17589391288893808 H 0.0 **** 0.06
4193 H 101.98981003926873 54.46140105039932 -0.6944731782659446 H 0.0 **** 0.06
4194 H 102.2701642164151 53.77715243468958 0.9249554503435249 H 0.0 **** 0.06
4195 H 100.72885855869715 54.58720911768687 0.5566421001106008 H 0.0 **** 0.06
4196 C 209.47891521825187 26.4621152467614 84.99237213037658 C 0.0 **** -0.24
4197 H 209.95741148963486 26.95900219409579 85.83582384940202 H 0.0 **** 0.06
4198 H 210.2429166223198 26.019573845006832 84.35092287435221 H 0.0 **** 0.06
4199 H 208.9014411191249 27.18891921082904 84.42093464297953 H 0.0 **** 0.06
4200 H 208.8160154650662 25.67881537004962 85.36011437594671 H 0.0 **** 0.06
4201 C 99.38184826638263 191.21584237933124 140.56072584915302 C 0.0 **** -0.24
4202 H 99.36562454019861 192.2930762900977 140.3948764278299 H 0.0 **** 0.06
4203 H 100.05845929191639 190.7489590794641 139.8444195918708 H 0.0 **** 0.06
4204 H 98.37798852999879 190.8123906820893 140.4298614675758 H 0.0 **** 0.06
4205 H 99.72724572429905 191.01043416127487 141.5740146525627 H 0.0 **** 0.06
4206 C 174.4146933582685 177.2047159964005 65.19570958071739 C 0.0 **** -0.24
4207 H 174.79833038412644 176.67589114675235 64.32279030631304 H 0.0 **** 0.06
4208 H 175.14367241967562 177.14376678581152 66.00491900333313 H 0.0 **** 0.06
4209 H 173.47854611515126 176.74859958349208 65.51447635839116 H 0.0 **** 0.06
4210 H 174.24188319107316 178.24988871549994 64.94033777490131 H 0.0 **** 0.06
4211 C 87.40848221549682 177.86401803129695 78.47411780334119 C 0.0 **** -0.24
4212 H 87.9460175991798 177.00306919171828 78.07639686106154 H 0.0 **** 0.06
4213 H 86.94706240277453 177.59653826394964 79.42392854321696 H 0.0 **** 0.06
4214 H 86.63581501573735 178.16780195672783 77.76714052017928 H 0.0 **** 0.06
4215 H 88.10579362297786 178.68797278689755 78.626014150645 H 0.0 **** 0.06
4216 C 33.60662164652919 175.0435745982239 146.33357844361427 C 0.0 **** -0.24
4217 H 34.06897396394352 174.0938464178767 146.0651685899918 H 0.0 **** 0.06
4218 H 34.33330115492981 175.84703342124416 146.2149321567535 H 0.0 **** 0.06
4219 H 33.27323393203551 175.00429436677248 147.37134087210217 H 0.0 **** 0.06
4220 H 32.75104227711158 175.22729547933932 145.6836794378185 H 0.0 **** 0.06
4221 C 197.4437531198672 65.84506867611167 60.960913323396795 C 0.0 **** -0.24
4222 H 197.32252687720438 64.98561248814455 61.621081797372725 H 0.0 **** 0.06
4223 H 197.43104096718963 66.76109380188957 61.55190445200611 H 0.0 **** 0.06
4224 H 196.62808318955157 65.86642839628013 60.2382650950326 H 0.0 **** 0.06
4225 H 198.39516897809642 65.76510632806536 60.43366570676608 H 0.0 **** 0.06
4226 C 40.12998035911431 21.160463003456414 69.67297870245756 C 0.0 **** -0.24
4227 H 40.60272628502881 21.460894693968726 70.60811571256608 H 0.0 **** 0.06
4228 H 40.63826258468259 21.642720592596845 68.83748666284572 H 0.0 **** 0.06
4229 H 39.08176284959893 21.460193366042972 69.68406516427808 H 0.0 **** 0.06
4230 H 40.197065044008696 20.07808387782302 69.5642441351165 H 0.0 **** 0.06
4231 C 89.35167359950117 168.9063759228269 192.1872845607833 C 0.0 **** -0.24
4232 H 88.4789319884502 169.1858110154625 192.77750337300782 H 0.0 **** 0.06
4233 H 89.61628609043743 167.8697763315821 192.39894153562068 H 0.0 **** 0.06
4234 H 90.1888094076154 169.55498331131423 192.4476674540612 H 0.0 **** 0.06
4235 H 89.1230199462646 169.01482200626128 191.12744727285786 H 0.0 **** 0.06
4236 C 55.072808984555266 211.6287073563316 201.2596231620778 C 0.0 **** -0.24
4237 H 54.41215397014024 212.4950712415563 201.2196517193608 H 0.0 **** 0.06
4238 H 55.070975313561334 211.12560515067875 200.29302193425198 H 0.0 **** 0.06
4239 H 54.72381756434622 210.94037311194194 202.02909056626515 H 0.0 **** 0.06
4240 H 56.08593279571606 211.9555791710127 201.4969754784509 H 0.0 **** 0.06
4241 C 68.28057763743367 145.33033575185 134.63456910700359 C 0.0 **** -0.24
4242 H 67.76641475258461 146.1256739381842 135.17411691097732 H 0.0 **** 0.06
4243 H 68.60112297181009 145.70049184250922 133.6607861268747 H 0.0 **** 0.06
4244 H 67.60247313695804 144.48767973313142 134.49766305786176 H 0.0 **** 0.06
4245 H 69.15009389319496 145.007204253481 135.20548996310072 H 0.0 **** 0.06
4246 C 31.627622416282435 141.95263676457455 126.3349564986247 C 0.0 **** -0.24
4247 H 31.641080288710015 142.74384442070635 127.08409363910971 H 0.0 **** 0.06
4248 H 31.883323824910192 141.0026195672928 126.8051854501951 H 0.0 **** 0.06
4249 H 32.35390968772266 142.18032482454487 125.55418822477702 H 0.0 **** 0.06
4250 H 30.63214815517732 141.8849770616169 125.895641914051 H 0.0 **** 0.06
4251 C 77.34112723628016 170.69943138078708 124.33872363159587 C 0.0 **** -0.24
4252 H 77.87383223803431 170.92125561405447 125.26341683813088 H 0.0 **** 0.06
4253 H 76.49293175751416 171.3768526380626 124.23673825326519 H 0.0 **** 0.06
4254 H 76.98334008026961 169.6695606012787 124.36513738175914 H 0.0 **** 0.06
4255 H 78.01402589372344 170.8283910980674 123.491045082409 H 0.0 **** 0.06
4256 C 198.25164264096858 160.68136259913442 138.79062919437075 C 0.0 **** -0.24
4257 H 198.9476063994299 161.50801104379872 138.93178486954304 H 0.0 **** 0.06
4258 H 198.35850231212552 159.97238701398933 139.61138540683078 H 0.0 **** 0.06
4259 H 198.46877490530596 160.18044884292104 137.84632195958721 H 0.0 **** 0.06
4260 H 197.23098923524267 161.06443110768524 138.771806545417 H 0.0 **** 0.06
4261 C 188.48633174490948 76.5516229349977 111.72539658369595 C 0.0 **** -0.24
4262 H 187.6132151921458 77.01091076144861 111.26147383021373 H 0.0 **** 0.06
4263 H 188.60433858615468 75.53523573122634 111.3505878817777 H 0.0 **** 0.06
4264 H 188.35303114802375 76.52749600310425 112.80673925420905 H 0.0 **** 0.06
4265 H 189.37527217956068 77.1341412424264 111.4825623424124 H 0.0 **** 0.06
4266 C 47.53219963255185 21.320017193126134 193.1687302889426 C 0.0 **** -0.24
4267 H 48.14560681887943 20.570217601292384 193.668495568572 H 0.0 **** 0.06
4268 H 46.48140887581694 21.03603170216701 193.23949887101008 H 0.0 **** 0.06
4269 H 47.8205482524598 21.384409877249922 192.11909711118022 H 0.0 **** 0.06
4270 H 47.67997272931434 22.288269275452265 193.64606679319778 H 0.0 **** 0.06
4271 C 137.78437428646976 92.63504133404818 99.64507771393255 C 0.0 **** -0.24
4272 H 137.7562254364871 92.91024814224791 98.59038344290798 H 0.0 **** 0.06
4273 H 137.70758323872957 91.55148612353544 99.73968950820807 H 0.0 **** 0.06
4274 H 136.95187680760426 93.10656269169054 100.16624244306934 H 0.0 **** 0.06
4275 H 138.72440935657886 92.9724974455173 100.08263295801225 H 0.0 **** 0.06
4276 C 46.64438046774734 165.6025568618134 172.15965499053345 C 0.0 **** -0.24
4277 H 46.7801530625058 165.24242462952532 173.17937834130691 H 0.0 **** 0.06
4278 H 45.593282242370094 165.83935412326713 171.9948347451665 H 0.0 **** 0.06
4279 H 46.9577890215125 164.8296622032637 171.45757018878214 H 0.0 **** 0.06
4280 H 47.247456489204865 166.49798412964276 172.00695113004372 H 0.0 **** 0.06
4281 C 166.50988113068453 171.2231833707333 95.74674539198044 C 0.0 **** -0.24
4282 H 166.84090038021063 171.78718620678478 94.87428381293789 H 0.0 **** 0.06
4283 H 167.28895839092735 171.245335842307 96.50968251347165 H 0.0 **** 0.06
4284 H 166.3131217914289 170.19021662359944 95.45795720686719 H 0.0 **** 0.06
4285 H 165.5983147141219 171.66920239766782 96.14356250315039 H 0.0 **** 0.06
4286 C 46.71377314952905 9.434190951593209 133.18534672218965 C 0.0 **** -0.24
4287 H 46.21044847149173 8.611166158363744 133.69410758869435 H 0.0 **** 0.06
4288 H 45.98315130296889 10.197424784635373 132.91934681066425 H 0.0 **** 0.06
4289 H 47.19548484729869 9.060468444048368 132.28126736686977 H 0.0 **** 0.06
4290 H 47.464843557620455 9.863531485857152 133.84714582753855 H 0.0 **** 0.06
4291 C 183.43556591976312 102.05531938232139 11.5461786654906 C 0.0 **** -0.24
4292 H 183.46064937432584 102.68596797976687 10.658284933237695 H 0.0 **** 0.06
4293 H 184.30102519275306 102.27377019939996 12.17110154861308 H 0.0 **** 0.06
4294 H 183.45655619858115 101.00723385285846 11.24805576687453 H 0.0 **** 0.06
4295 H 182.52206388512548 102.25532208631284 12.10757167754548 H 0.0 **** 0.06
4296 C 36.687796803377964 31.159120671066333 45.62117341799353 C 0.0 **** -0.24
4297 H 35.729771321105915 31.659261215073286 45.7615469934546 H 0.0 **** 0.06
4298 H 36.71212456946151 30.24649800271898 46.216638077557604 H 0.0 **** 0.06
4299 H 37.49316525711379 31.821072371682817 45.93839057540947 H 0.0 **** 0.06
4300 H 36.81680729913168 30.90930666942991 44.56692751042914 H 0.0 **** 0.06
4301 C 141.64078738597965 168.3813485235921 187.71159585613518 C 0.0 **** -0.24
4302 H 141.89971650229006 167.53229917108172 187.0795420333943 H 0.0 **** 0.06
4303 H 140.6142087094933 168.273223753071 188.06173353258393 H 0.0 **** 0.06
4304 H 141.7343235681364 169.30365516696224 187.13817491414883 H 0.0 **** 0.06
4305 H 142.31605552137097 168.41493222522107 188.5670689599326 H 0.0 **** 0.06
4306 C 66.75335360571673 203.0524547945594 72.4389696238019 C 0.0 **** -0.24
4307 H 66.43670895339332 202.46097933807977 73.2977490348478 H 0.0 **** 0.06
4308 H 67.76796560233446 203.41495746820573 72.60312028417978 H 0.0 **** 0.06
4309 H 66.07929262941835 203.90058142106255 72.31422115056954 H 0.0 **** 0.06
4310 H 66.72885667113388 202.43358655053072 71.54204090144198 H 0.0 **** 0.06
4311 C 140.20486407408333 11.854734162249429 120.22711582091868 C 0.0 **** -0.24
4312 H 141.15528078968458 12.242565304777287 120.59405616000656 H 0.0 **** 0.06
4313 H 140.0308592097973 12.219137934536263 119.21404457155815 H 0.0 **** 0.06
4314 H 139.39867699908524 12.19247156863463 120.87833850247314 H 0.0 **** 0.06
4315 H 140.2342745390311 10.765622924488355 120.22096314423372 H 0.0 **** 0.06
4316 C 83.61873065919173 94.21454618753931 44.46713838872333 C 0.0 **** -0.24
4317 H 83.07872443657345 95.16006352160211 44.44315183656721 H 0.0 **** 0.06
4318 H 84.47292811302236 94.30022901308742 45.13940568236447 H 0.0 **** 0.06
4319 H 83.96780585979491 93.96989657686491 43.463721119278716 H 0.0 **** 0.06
4320 H 82.9540602216822 93.4259969994467 44.82246014958366 H 0.0 **** 0.06
4321 C 195.7327188278076 214.86889961036965 28.824013858065456 C 0.0 **** -0.24
4322 H 196.016634846122 214.94686574401516 27.775089126094713 H 0.0 **** 0.06
4323 H 195.91621024524005 213.8533329953581 29.176714169334332 H 0.0 **** 0.06
4324 H 194.67371033996477 215.10513549149712 28.931678993050326 H 0.0 **** 0.06
4325 H 196.32270211101866 215.57056840581927 29.414086541897063 H 0.0 **** 0.06
4326 C 26.76446521044909 94.50568605585516 173.20752236352274 C 0.0 **** -0.24
4327 H 26.9597164032225 93.71102137212819 172.48740004730075 H 0.0 **** 0.06
4328 H 27.639628958919417 95.15224936867344 173.281565966753 H 0.0 **** 0.06
4329 H 26.551635399282304 94.06804137752391 174.18251812379216 H 0.0 **** 0.06
4330 H 25.90611037159539 95.09242201735373 172.8779513621045 H 0.0 **** 0.06
4331 C 0.9995294137753987 194.1906582153464 21.496621349656436 C 0.0 **** -0.24
4332 H 0.10393250602253801 193.70787692783182 21.887604140628866 H 0.0 **** 0.06
4333 H 0.9240767458352366 194.27500128792764 20.412280404133412 H 0.0 **** 0.06
4334 H 1.8760686138595517 193.5948442001344 21.7551882882467 H 0.0 **** 0.06
4335 H 1.0955021001495737 195.18487868204653 21.933103932831045 H 0.0 **** 0.06
4336 C 101.58863929712389 110.75535630933774 200.81920684580146 C 0.0 **** -0.24
4337 H 101.73696502159326 109.67600489337548 200.85213307654672 H 0.0 **** 0.06
4338 H 100.97156107804123 111.01092571432076 199.95749465678674 H 0.0 **** 0.06
4339 H 102.55446178106702 111.25209194124636 200.7367583856486 H 0.0 **** 0.06
4340 H 101.08996722164686 111.08043927800242 201.73258101327283 H 0.0 **** 0.06
4341 C 179.03193799303486 174.33559039279316 55.62756850635583 C 0.0 **** -0.24
4342 H 178.6622389525619 174.10753124851684 54.62782064602794 H 0.0 **** 0.06
4343 H 180.08704634932565 174.06801963488704 55.693039111556345 H 0.0 **** 0.06
4344 H 178.46555293591308 173.76500062650152 56.363727066437605 H 0.0 **** 0.06
4345 H 178.91424843057092 175.40153051674923 55.823915048593335 H 0.0 **** 0.06
4346 C 209.13691004023877 76.46884779190691 147.65343734020757 C 0.0 **** -0.24
4347 H 208.6669868483897 77.29798044960785 147.12443888388435 H 0.0 **** 0.06
4348 H 210.12542913421208 76.28331482214008 147.23251969285195 H 0.0 **** 0.06
4349 H 208.5222149061775 75.57539004370847 147.54728052758747 H 0.0 **** 0.06
4350 H 209.23294671512485 76.72043397121683 148.70960895820912 H 0.0 **** 0.06
4351 C 156.40707423809636 17.46303866719515 58.984381806972976 C 0.0 **** -0.24
4352 H 157.34815807662824 17.019329152739488 59.30972810982928 H 0.0 **** 0.06
4353 H 156.53061076591155 17.886557943534513 57.98822355339041 H 0.0 **** 0.06
4354 H 156.11642839220502 18.249568210041843 59.681454559709664 H 0.0 **** 0.06
4355 H 155.63409190271562 16.69438368941792 58.96027818218175 H 0.0 **** 0.06
4356 C 41.77247881852246 14.405268349979508 43.07414771811786 C 0.0 **** -0.24
4357 H 42.714456847761866 14.25713811199114 42.54604833110807 H 0.0 **** 0.06
4358 H 41.931717726754655 14.267475450736129 44.144019317129946 H 0.0 **** 0.06
4359 H 41.03895459801511 13.681638396579217 42.71956199686093 H 0.0 **** 0.06
4360 H 41.40695417566343 15.415183912940165 42.88737129228144 H 0.0 **** 0.06
4361 C 107.77956652998513 52.99719892078089 53.72639560424079 C 0.0 **** -0.24
4362 H 108.32279916001652 53.486848792371305 52.91839594883555 H 0.0 **** 0.06
4363 H 108.4399396842647 52.28956572841227 54.22959808022489 H 0.0 **** 0.06
4364 H 106.9203797964537 52.46593719188033 53.31707266691831 H 0.0 **** 0.06
4365 H 107.43814317485719 53.74631703328687 54.44061495331448 H 0.0 **** 0.06
4366 C 161.3469459605232 54.57735025940002 120.25403327346372 C 0.0 **** -0.24
4367 H 160.67138196710667 54.142607162577946 119.51731292764147 H 0.0 **** 0.06
4368 H 162.3107159107332 54.78074438264002 119.78872001635584 H 0.0 **** 0.06
4369 H 161.48161066546382 53.879077323589385 121.07985737960495 H 0.0 **** 0.06
4370 H 160.9215987793789 55.50835169957956 120.63122455381291 H 0.0 **** 0.06
4371 C 60.189108175263755 169.47413733932035 90.41118810489941 C 0.0 **** -0.24
4372 H 59.44596095215741 169.58416850987024 91.20153960814359 H 0.0 **** 0.06
4373 H 60.259517251508896 170.40345214365652 89.8457080457468 H 0.0 **** 0.06
4374 H 59.89241314106414 168.6643252827177 89.74491592311811 H 0.0 **** 0.06
4375 H 61.158195731749174 169.2434199648032 90.85445433441178 H 0.0 **** 0.06
4376 C 56.183983119997166 48.78266920897511 53.99073542608875 C 0.0 **** -0.24
4377 H 55.18227164399727 48.6318320175277 54.393207037735465 H 0.0 **** 0.06
4378 H 56.83403024981722 49.17695000975351 54.77284318277975 H 0.0 **** 0.06
4379 H 56.13997892211562 49.49090948173807 53.1628553035913 H 0.0 **** 0.06
4380 H 56.578906193239334 47.831532052163254 53.63510641322381 H 0.0 **** 0.06
4381 C 11.717754867423253 148.80529286076717 208.81348953171636 C 0.0 **** -0.24
4382 H 11.49255128575868 148.4179251417442 207.8192683525471 H 0.0 **** 0.06
4383 H 10.884471536508102 148.59011789246046 209.4831915386221 H 0.0 **** 0.06
4384 H 11.86906510369596 149.88332802049638 208.75663404317794 H 0.0 **** 0.06
4385 H 12.622093617532528 148.32985678434284 209.19242631810116 H 0.0 **** 0.06
4386 C 56.015392911314336 34.634451993336 56.4260364489532 C 0.0 **** -0.24
4387 H 56.587253604665534 33.916449752689374 57.012856903844096 H 0.0 **** 0.06
4388 H 56.62240242507835 34.98611770104377 55.591186861396636 H 0.0 **** 0.06
4389 H 55.73931057942508 35.480531403146756 57.0561454332055 H 0.0 **** 0.06
4390 H 55.11387073560735 34.15679446403233 56.044178930318395 H 0.0 **** 0.06
4391 C 111.40912379389978 136.35819444646916 109.61068539820349 C 0.0 **** -0.24
4392 H 111.84614550484262 137.30308427183803 109.93281017170057 H 0.0 **** 0.06
4393 H 112.18592236826565 135.72632155823948 109.17956271013884 H 0.0 **** 0.06
4394 H 110.63979260568804 136.55011036051496 108.8625477459695 H 0.0 **** 0.06
4395 H 110.9634861387493 135.85400550844457 110.46888278347063 H 0.0 **** 0.06
4396 C 140.46674826339017 28.46018716674081 128.423920172559 C 0.0 **** -0.24
4397 H 140.4889150879796 27.562293174345513 129.0419672232585 H 0.0 **** 0.06
4398 H 139.80577737799365 28.29734514894595 127.57149648966221 H 0.0 **** 0.06
4399 H 141.4727376271694 28.67999546931145 128.06660960032906 H 0.0 **** 0.06
4400 H 140.09897671097877 29.299185427144437 129.01421682072004 H 0.0 **** 0.06
4401 C 214.52997852648963 41.65367797946902 88.87447636012229 C 0.0 **** -0.24
4402 H 214.05806425216053 41.17339755382443 88.01665249342915 H 0.0 **** 0.06
4403 H 215.5937122810562 41.78775835278256 88.67586844499925 H 0.0 **** 0.06
4404 H 214.4003648486445 41.02768733382493 89.75714625148017 H 0.0 **** 0.06
4405 H 214.06726070050897 42.62489288087454 89.04656920273963 H 0.0 **** 0.06
4406 C 48.49731118275653 149.0169337749163 134.63319931009357 C 0.0 **** -0.24
4407 H 47.825105251679105 149.49001953377575 135.34956807016488 H 0.0 **** 0.06
4408 H 49.213051632759374 148.3911364007813 135.1663103600764 H 0.0 **** 0.06
4409 H 49.0322872870303 149.78549767142204 134.07469751639326 H 0.0 **** 0.06
4410 H 47.91893744080423 148.40241568125276 133.94370496312888 H 0.0 **** 0.06
4411 C 7.707622009095715 31.34913825074659 112.33654816947084 C 0.0 **** -0.24
4412 H 8.35036523837185 30.991199737351536 113.14021183155693 H 0.0 **** 0.06
4413 H 7.535880008251084 30.54404557103925 111.62252885001196 H 0.0 **** 0.06
4414 H 8.18940566070485 32.18707617931014 111.83167323901593 H 0.0 **** 0.06
4415 H 6.754026299247741 31.676293507651707 112.75208013289317 H 0.0 **** 0.06
4416 C 12.028317707992471 193.9463308003592 199.74243158975528 C 0.0 **** -0.24
4417 H 10.964424548498073 194.1860361427157 199.7564620845066 H 0.0 **** 0.06
4418 H 12.550792952667734 194.6541856626339 199.09858746474478 H 0.0 **** 0.06
4419 H 12.167416810481797 192.9352827997297 199.36193784876258 H 0.0 **** 0.06
4420 H 12.428066393228534 194.0127120553018 200.754744619026 H 0.0 **** 0.06
4421 C 34.65939920449647 83.43708958051111 79.94470346009815 C 0.0 **** -0.24
4422 H 35.67652070403092 83.38000288724747 79.555504126716 H 0.0 **** 0.06
4423 H 34.68918640543025 83.46047307872304 81.0344869650191 H 0.0 **** 0.06
4424 H 34.094841456780046 82.56560790558744 79.61558137070573 H 0.0 **** 0.06
4425 H 34.17967119274101 84.34347191449855 79.57406987841021 H 0.0 **** 0.06
4426 C 204.1060431532995 154.50250937849563 23.973650987356905 C 0.0 **** -0.24
4427 H 203.44190075960893 154.176410280891 23.173188372874506 H 0.0 **** 0.06
4428 H 205.08928799670082 154.05094791837638 23.83514469816913 H 0.0 **** 0.06
4429 H 203.69568475351525 154.19169018393336 24.93510123073213 H 0.0 **** 0.06
4430 H 204.19674817764493 155.58806354493203 23.951540566534717 H 0.0 **** 0.06
4431 C 107.32098026378428 211.35737826462736 99.74838684353512 C 0.0 **** -0.24
4432 H 108.35766145534068 211.02323072710226 99.78943152603796 H 0.0 **** 0.06
4433 H 106.90057914771852 211.11525323911758 98.77271246305338 H 0.0 **** 0.06
4434 H 107.28092366752163 212.43467293922583 99.90464548848337 H 0.0 **** 0.06
4435 H 106.74666029630951 210.85533205535603 100.52733056718142 H 0.0 **** 0.06
4436 C 193.89165866766862 186.15879344924102 120.2075053985916 C 0.0 **** -0.24
4437 H 194.13633880272826 187.21845661379982 120.27798759065904 H 0.0 **** 0.06
4438 H 194.3286852356467 185.74439665926792 119.2985322249766 H 0.0 **** 0.06
4439 H 192.80810460656664 186.0380132509704 120.17823252205734 H 0.0 **** 0.06
4440 H 194.29162143259512 185.6349753188854 121.07531498517749 H 0.0 **** 0.06
4441 C 3.1218948615787454 110.04035873260209 183.36285320865244 C 0.0 **** -0.24
4442 H 3.9245992744818565 110.45788717071038 183.97120571882482 H 0.0 **** 0.06
4443 H 2.238379522469856 110.67348136729139 183.44503297056673 H 0.0 **** 0.06
4444 H 2.8854203192159247 109.03592982795895 183.71369433985342 H 0.0 **** 0.06
4445 H 3.4412963296136354 109.99626119408508 182.3213868123408 H 0.0 **** 0.06
4446 C 14.80906763310395 137.42941003713327 165.41912735540834 C 0.0 **** -0.24
4447 H 15.297889464178155 136.48765810635393 165.66568897072278 H 0.0 **** 0.06
4448 H 14.230418168732058 137.30985777774663 164.50315836481076 H 0.0 **** 0.06
4449 H 15.563823554325452 138.20268019586058 165.27360103763044 H 0.0 **** 0.06
4450 H 14.144622010150812 137.71823581849264 166.2336866375483 H 0.0 **** 0.06
4451 C 90.05197906924413 143.8741628432178 84.65908385743059 C 0.0 **** -0.24
4452 H 90.78151623961658 143.3266169030382 85.25638035735464 H 0.0 **** 0.06
4453 H 89.0517144335498 143.49764551715816 84.87405247202027 H 0.0 **** 0.06
4454 H 90.2734913841743 143.7360450481887 83.60030818551134 H 0.0 **** 0.06
4455 H 90.10366666330874 144.93413919038397 84.90575703233036 H 0.0 **** 0.06
4456 C 66.59738574550374 147.029127496495 23.57388030074216 C 0.0 **** -0.24
4457 H 66.71665304549822 147.55506886736055 22.626894496166813 H 0.0 **** 0.06
4458 H 67.53327576006944 146.53305321038124 23.83345946263148 H 0.0 **** 0.06
4459 H 65.8060995805248 146.28541897071847 23.4787279300821 H 0.0 **** 0.06
4460 H 66.33442542292005 147.74260747650231 24.35501110158316 H 0.0 **** 0.06
4461 C 99.59737464231135 78.40954035024708 131.57522980378383 C 0.0 **** -0.24
4462 H 99.73484630357835 77.39315252493708 131.2080099168241 H 0.0 **** 0.06
4463 H 100.54275891944532 78.78645215913014 131.9663924371352 H 0.0 **** 0.06
4464 H 98.84936120594925 78.41183136440895 132.36859781517995 H 0.0 **** 0.06
4465 H 99.26087146133567 79.0488407569822 130.75879502829537 H 0.0 **** 0.06
4466 C 77.8560565076178 169.56460209488586 73.35213068737984 C 0.0 **** -0.24
4467 H 78.79086471239681 169.738306260161 73.88670308546729 H 0.0 **** 0.06
4468 H 77.15665074163358 170.37043490696988 73.57456087546764 H 0.0 **** 0.06
4469 H 77.42794508888848 168.6139540851314 73.66695774766042 H 0.0 **** 0.06
4470 H 78.05168246359172 169.53803482816284 72.27998293231879 H 0.0 **** 0.06
4471 C 177.7815191676155 10.159338877357811 215.28097442714122 C 0.0 **** -0.24
4472 H 178.6239989130308 10.620058408348882 215.79669870168743 H 0.0 **** 0.06
4473 H 176.871801001554 10.311816411255165 215.86228123744013 H 0.0 **** 0.06
4474 H 177.96561590691869 9.091041881779773 215.16732999989287 H 0.0 **** 0.06
4475 H 177.66503644944493 10.613848453048547 214.2968733311646 H 0.0 **** 0.06
4476 C 34.393577135328584 187.08786820688118 130.48689426548196 C 0.0 **** -0.24
4477 H 34.48615283346143 187.165831392453 129.40360223670223 H 0.0 **** 0.06
4478 H 33.372383863046835 187.3301518897959 130.78215188971393 H 0.0 **** 0.06
4479 H 35.08440701406896 187.78394837448232 130.96118593971312 H 0.0 **** 0.06
4480 H 34.631024553515275 186.07044087182672 130.79872032202894 H 0.0 **** 0.06
4481 C 52.22930122295004 109.09747949447457 85.0999752162706 C 0.0 **** -0.24
4482 H 51.22231975506345 109.35018445961505 84.7687522524929 H 0.0 **** 0.06
4483 H 52.238569346372884 108.99071558061168 86.18514788542666 H 0.0 **** 0.06
4484 H 52.917707132233886 109.89050759738787 84.8067553668451 H 0.0 **** 0.06
4485 H 52.5388705493022 108.15931082381915 84.63978448560209 H 0.0 **** 0.06
4486 C 77.38501583259534 16.750948337214197 80.36052986600093 C 0.0 **** -0.24
4487 H 78.27337892478289 17.10578207108159 79.83749145063753 H 0.0 **** 0.06
4488 H 77.5133053129561 16.89647090664039 81.43361101168863 H 0.0 **** 0.06
4489 H 77.24008463162107 15.690619833237918 80.15187570292495 H 0.0 **** 0.06
4490 H 76.51485459940835 17.310467031615474 80.01854100623031 H 0.0 **** 0.06
4491 C 108.91699375288827 72.15113722170453 181.50291950102894 C 0.0 **** -0.24
4492 H 108.05612892481317 71.6562518198635 181.05320589677004 H 0.0 **** 0.06
4493 H 109.50179130307343 71.4209989742492 182.0641896103849 H 0.0 **** 0.06
4494 H 108.57386861581226 72.93658264318897 182.1750018897314 H 0.0 **** 0.06
4495 H 109.53502105160923 72.58719979314112 180.71874872221386 H 0.0 **** 0.06
4496 C 9.138549953198208 215.1830303846017 126.18455711342143 C 0.0 **** -0.24
4497 H 8.247918292840552 215.7256802589875 126.50173450751485 H 0.0 **** 0.06
4498 H 9.399776107435116 215.4768855633273 125.16764700087386 H 0.0 **** 0.06
4499 H 8.939571605171281 214.11149362135228 126.21440218623378 H 0.0 **** 0.06
4500 H 9.965542716960485 215.41810529064475 126.854695827881 H 0.0 **** 0.06
4501 C 27.052676175778856 213.29292202409306 45.36912233832993 C 0.0 **** -0.24
4502 H 26.83945262063918 214.14690453247516 46.0128697620255 H 0.0 **** 0.06
4503 H 26.568945123723154 212.40405497880016 45.77327672737198 H 0.0 **** 0.06
4504 H 28.13012408184079 213.13278576311546 45.32544705800916 H 0.0 **** 0.06
4505 H 26.673417954751358 213.49005485133864 44.3668993238727 H 0.0 **** 0.06
4506 C 142.44779011504062 143.21562399808795 134.08788885158322 C 0.0 **** -0.24
4507 H 141.80805663537274 143.39296665964224 134.95188062040944 H 0.0 **** 0.06
4508 H 143.07771528949536 142.3453552423589 134.27509120990157 H 0.0 **** 0.06
4509 H 143.0754576183724 144.08895465248446 133.91493745871094 H 0.0 **** 0.06
4510 H 141.82864864502835 143.03339869256183 133.20944425084178 H 0.0 **** 0.06
4511 C 41.441544487272495 36.42608227417401 141.43055736139382 C 0.0 **** -0.24
4512 H 40.581679297358676 35.88183623616061 141.04131421803953 H 0.0 **** 0.06
4513 H 41.10822610352557 37.14075668965518 142.183315276263 H 0.0 **** 0.06
4514 H 41.93336439730831 36.95905223781256 140.61602046668395 H 0.0 **** 0.06
4515 H 42.143146994182985 35.72347109025333 141.88042910580407 H 0.0 **** 0.06
4516 C 38.05850198341852 87.89780794252475 69.4654324447215 C 0.0 **** -0.24
4517 H 37.691663355083136 88.77590267922518 69.99689099459692 H 0.0 **** 0.06
4518 H 37.88344887648003 87.0083236409743 70.06932249820966 H 0.0 **** 0.06
4519 H 39.12741526819556 88.00669374356438 69.27899632414756 H 0.0 **** 0.06
4520 H 37.5327770629018 87.8022648298783 68.51580991729199 H 0.0 **** 0.06
4521 C 11.708799052236714 116.71445435247303 28.33059499816838 C 0.0 **** -0.24
4522 H 12.390348634847498 115.86375078671581 28.31791624438786 H 0.0 **** 0.06
4523 H 10.681189956892496 116.3581706005452 28.2559051151338 H 0.0 **** 0.06
4524 H 11.929747293279434 117.36899792636542 27.487951712074207 H 0.0 **** 0.06
4525 H 11.835380448686067 117.26641129551474 29.26250477774154 H 0.0 **** 0.06
4526 C 60.35094409270613 160.2737798060958 160.52865821642294 C 0.0 **** -0.24
4527 H 60.54347727966103 160.09435465561214 161.58644445436073 H 0.0 **** 0.06
4528 H 59.420480940357834 160.83039839197698 160.4181403286821 H 0.0 **** 0.06
4529 H 60.26847961795903 159.32032364988657 160.00815837668935 H 0.0 **** 0.06
4530 H 61.17237241110382 160.85029903533894 160.10281993876413 H 0.0 **** 0.06
4531 C 41.751619124605156 153.87938337093726 11.706555011373894 C 0.0 **** -0.24
4532 H 42.057830756636235 154.66223541002472 12.400051405577926 H 0.0 **** 0.06
4533 H 41.10572404150639 154.3060163433879 10.93907212087845 H 0.0 **** 0.06
4534 H 41.209751806231964 153.1047379407322 12.248204700817666 H 0.0 **** 0.06
4535 H 42.63515573554298 153.44393071400413 11.238066799069031 H 0.0 **** 0.06
4536 C 14.329669707073464 107.91976602875532 96.87683406083873 C 0.0 **** -0.24
4537 H 14.56487463276656 108.57735368366419 97.71435317941693 H 0.0 **** 0.06
4538 H 13.582428458602408 107.18876032252216 97.18820897578631 H 0.0 **** 0.06
4539 H 15.233635847411477 107.40283165497964 96.55562665489838 H 0.0 **** 0.06
4540 H 13.93641776418525 108.51234097738227 96.05029308127062 H 0.0 **** 0.06
4541 C 58.373020631700115 74.25725407572867 8.260303182200118 C 0.0 **** -0.24
4542 H 58.24793435179829 74.01979638208826 9.316811301117696 H 0.0 **** 0.06
4543 H 57.70372434617357 73.63470463853747 7.666791757164958 H 0.0 **** 0.06
4544 H 59.404698717902605 74.06669723746319 7.964949917184356 H 0.0 **** 0.06
4545 H 58.135621129312426 75.30793970275732 8.093646872434988 H 0.0 **** 0.06
4546 C 216.530468146263 96.77732123432277 137.69393256409217 C 0.0 **** -0.24
4547 H 216.90565320628457 97.12567686325015 138.65656160713417 H 0.0 **** 0.06
4548 H 215.65644941614215 97.36334421050377 137.41120751522942 H 0.0 **** 0.06
4549 H 216.25420544188546 95.72586029132499 137.77099056528533 H 0.0 **** 0.06
4550 H 217.30735179443235 96.89425632201197 136.93830625388904 H 0.0 **** 0.06
4551 C 119.17060350044405 166.4823005973799 170.50167266388962 C 0.0 **** -0.24
4552 H 118.72931975713026 167.47868086038997 170.50059752462386 H 0.0 **** 0.06
4553 H 119.57965268148696 166.2678598227663 171.48981389160068 H 0.0 **** 0.06
4554 H 119.9693249295244 166.4378933659836 169.76078183130392 H 0.0 **** 0.06
4555 H 118.40577360210919 165.74485645319692 170.256996333095 H 0.0 **** 0.06
4556 C 128.40788776303066 107.92238318426045 115.77011402691436 C 0.0 **** -0.24
4557 H 128.2516456003783 106.91178613152131 115.3917595195059 H 0.0 **** 0.06
4558 H 127.466188497281 108.47032982794279 115.73927406277384 H 0.0 **** 0.06
4559 H 129.14655413660603 108.43085897622372 115.15120169113656 H 0.0 **** 0.06
4560 H 128.76705863193467 107.87282059602079 116.79807023916946 H 0.0 **** 0.06
4561 C 193.98757249443344 202.23054072985394 187.283243982885 C 0.0 **** -0.24
4562 H 194.05156218074114 203.04026006108975 186.5559468830169 H 0.0 **** 0.06
4563 H 193.0830154567035 201.64998333072379 187.10087398617375 H 0.0 **** 0.06
4564 H 193.9551036072208 202.6482397447756 188.289579634274 H 0.0 **** 0.06
4565 H 194.86012734997743 201.58454919228404 187.18457230994107 H 0.0 **** 0.06
4566 C 29.410654881813016 47.71448329284277 123.03613477819711 C 0.0 **** -0.24
4567 H 30.09181610836744 46.91564101451553 122.7444559835191 H 0.0 **** 0.06
4568 H 29.901083155160535 48.3599321035328 123.76587795518161 H 0.0 **** 0.06
4569 H 28.51227195617011 47.2834138416834 123.47722136055269 H 0.0 **** 0.06
4570 H 29.13965140102205 48.299078812722826 122.1573428133505 H 0.0 **** 0.06
4571 C 134.15795325394402 125.86580855483778 60.72800106161168 C 0.0 **** -0.24
4572 H 133.33993909700393 126.3214611315329 61.28559114202989 H 0.0 **** 0.06
4573 H 134.10516379598977 124.78112096429247 60.82895780896567 H 0.0 **** 0.06
4574 H 135.10915582479026 126.22158023573427 61.122911562341926 H 0.0 **** 0.06
4575 H 134.0754247421046 126.13818864103293 59.67537136139484 H 0.0 **** 0.06
4576 C 72.67378029389022 180.6851960518103 86.72609690999379 C 0.0 **** -0.24
4577 H 73.21609766577524 181.63003160649868 86.75013370482209 H 0.0 **** 0.06
4578 H 71.7449635211238 180.81259812531005 86.1698970770763 H 0.0 **** 0.06
4579 H 72.44694105358735 180.37143991211434 87.744956654192 H 0.0 **** 0.06
4580 H 73.28723177818102 179.92682148041854 86.24080585998222 H 0.0 **** 0.06
4581 C 208.67515599739596 123.63679550631291 115.1756082843615 C 0.0 **** -0.24
4582 H 208.13988383500137 122.78909412940477 115.60205664613189 H 0.0 **** 0.06
4583 H 207.99013891987394 124.22939337837742 114.56772874588269 H 0.0 **** 0.06
4584 H 209.49267260240993 123.27417533825418 114.55224454134934 H 0.0 **** 0.06
4585 H 209.0764118427875 124.25498178587524 115.97918442910192 H 0.0 **** 0.06
4586 C 18.176252382743456 2.658639073008999 18.351305365876726 C 0.0 **** -0.24
4587 H 19.19884303750524 2.3876539718263317 18.612369630832163 H 0.0 **** 0.06
4588 H 17.73696933145328 1.8692922759672115 17.740719430702597 H 0.0 **** 0.06
4589 H 18.179908604208492 3.593514667957642 17.789757138486237 H 0.0 **** 0.06
4590 H 17.589879452532386 2.783249937095235 19.260661745527187 H 0.0 **** 0.06
4591 C 145.04400831271744 71.55705694824496 166.734396899275 C 0.0 **** -0.24
4592 H 145.31127501401255 72.1457301636579 165.85669906049407 H 0.0 **** 0.06
4593 H 144.67918408661967 70.58033201750936 166.41845733208572 H 0.0 **** 0.06
4594 H 144.26362929577783 72.07425611601599 167.2935183211485 H 0.0 **** 0.06
4595 H 145.92215334617043 71.43074706220341 167.36796162071994 H 0.0 **** 0.06
4596 C 3.024163003250692 176.55589539426023 161.10651656624697 C 0.0 **** -0.24
4597 H 3.3015146228929098 176.96130584159636 160.13362624367306 H 0.0 **** 0.06
4598 H 3.47651689078117 175.57240719984597 161.23276657069658 H 0.0 **** 0.06
4599 H 1.9395056466849496 176.46758308610626 161.16738108586327 H 0.0 **** 0.06
4600 H 3.3788885955108867 177.2231065060348 161.89176825521224 H 0.0 **** 0.06
4601 C 185.05968749623437 74.00208928207684 209.06854719903836 C 0.0 **** -0.24
4602 H 185.7002819741269 73.78584312239877 208.21348553310463 H 0.0 **** 0.06
4603 H 185.25533073476592 73.27852424766274 209.86028990385142 H 0.0 **** 0.06
4604 H 184.01478314661443 73.93510318325394 208.7655143624912 H 0.0 **** 0.06
4605 H 185.26811819114684 75.00654682167834 209.43421343908497 H 0.0 **** 0.06
4606 C 172.17215780215344 48.52054668491468 26.07048401612019 C 0.0 **** -0.24
4607 H 171.63166334362336 47.82780811643323 25.42482840661819 H 0.0 **** 0.06
4608 H 171.93404247209514 49.5449328662109 25.785417068344316 H 0.0 **** 0.06
4609 H 173.24384718769562 48.35266931677518 25.96521682553154 H 0.0 **** 0.06
4610 H 171.878444758158 48.35345417144765 27.107223082548956 H 0.0 **** 0.06
4611 C 203.12597435205814 191.69496902086792 201.00366185912816 C 0.0 **** -0.24
4612 H 202.08023362139443 191.75909084580314 201.304038038636 H 0.0 **** 0.06
4613 H 203.1997849782714 191.15527852239344 200.0588865871659 H 0.0 **** 0.06
4614 H 203.6913189628932 191.16506128043474 201.77065625569736 H 0.0 **** 0.06
4615 H 203.53108924685108 192.6986893629467 200.88193468651315 H 0.0 **** 0.06
4616 C 23.113286377579286 91.79268706797679 216.55153714435284 C 0.0 **** -0.24
4617 H 23.5786954345037 92.66177191404473 216.08685760714567 H 0.0 **** 0.06
4618 H 22.706634342144 92.0761173228904 217.52289061677234 H 0.0 **** 0.06
4619 H 23.858703421979925 91.00964072403046 216.68315004790395 H 0.0 **** 0.06
4620 H 22.309313787449028 91.4262052077908 215.91344526012125 H 0.0 **** 0.06
4621 C 68.28426398281042 109.74089570877676 59.885292252241854 C 0.0 **** -0.24
4622 H 67.61149549562168 110.54434764206273 59.58582491572483 H 0.0 **** 0.06
4623 H 69.1032830737114 110.15395716410593 60.47563209522269 H 0.0 **** 0.06
4624 H 68.68549000197419 109.25258429523537 58.99701088470606 H 0.0 **** 0.06
4625 H 67.73586804869308 109.01295361219847 60.483743880740946 H 0.0 **** 0.06
4626 C 205.0500096112678 193.40185571499725 78.41785768368759 C 0.0 **** -0.24
4627 H 205.0182495881861 193.85076934481157 77.4250651617116 H 0.0 **** 0.06
4628 H 206.08538033819693 193.1837595966648 78.68437357400863 H 0.0 **** 0.06
4629 H 204.4724311185758 192.47756468377327 78.41841247763709 H 0.0 **** 0.06
4630 H 204.62595367926778 194.09630704865737 79.14395138882436 H 0.0 **** 0.06
4631 C 188.7564654196316 72.78006535317058 139.661522000224 C 0.0 **** -0.24
4632 H 188.08860368297314 72.03715984792245 140.09935104646894 H 0.0 **** 0.06
4633 H 188.36187009643163 73.09759230003573 138.6962747221835 H 0.0 **** 0.06
4634 H 189.74545667464258 72.34352660816876 139.52487886874297 H 0.0 **** 0.06
4635 H 188.82750882075473 73.6402952423204 140.32611697940632 H 0.0 **** 0.06
4636 C 41.793849724613665 203.15898890773835 152.31989003227807 C 0.0 **** -0.24
4637 H 42.51220623670285 202.657341673548 151.67148035395303 H 0.0 **** 0.06
4638 H 40.842309045637705 202.62923230495937 152.2858547573162 H 0.0 **** 0.06
4639 H 41.65168684247497 204.18445530777086 151.98003344442589 H 0.0 **** 0.06
4640 H 42.17092573928858 203.1648877881905 153.34228770888092 H 0.0 **** 0.06
4641 C 29.499322912695177 201.92430717710687 127.20199449893681 C 0.0 **** -0.24
4642 H 29.837253648025623 201.99542861218106 128.23662038467182 H 0.0 **** 0.06
4643 H 30.286185862891415 201.4784272837096 126.59364102097521 H 0.0 **** 0.06
4644 H 29.27001381257533 202.92104570205578 126.8265683840799 H 0.0 **** 0.06
4645 H 28.605321838322027 201.30305033018766 127.15450623900881 H 0.0 **** 0.06
4646 C 41.5873553461858 143.12167008536528 79.41973027176016 C 0.0 **** -0.24
4647 H 41.214845278952225 142.20899551828273 78.95440186740927 H 0.0 **** 0.06
4648 H 40.8104553045971 143.55071887020256 80.05219734201694 H 0.0 **** 0.06
4649 H 41.862390604938014 143.83777552561975 78.64433181385681 H 0.0 **** 0.06
4650 H 42.46321664749726 142.88873481806849 80.02542432109232 H 0.0 **** 0.06
4651 C 10.539498963708638 208.2037188600711 155.40603495431685 C 0.0 **** -0.24
4652 H 9.924071616034496 208.67553229258957 156.17246917378787 H 0.0 **** 0.06
4653 H 11.569418357120156 208.5485768617724 155.50480823349648 H 0.0 **** 0.06
4654 H 10.159216302852542 208.47187670098972 154.41987136606548 H 0.0 **** 0.06
4655 H 10.505316310516605 207.1220206526716 155.52743361562779 H 0.0 **** 0.06
4656 C 34.72181642418167 126.18025575579954 185.68973139760945 C 0.0 **** -0.24
4657 H 34.618757663080004 126.14646618135875 186.77414012421843 H 0.0 **** 0.06
4658 H 35.14883155615962 127.13942395795745 185.3950305455675 H 0.0 **** 0.06
4659 H 33.740965754208275 126.06112887954065 185.22762868611994 H 0.0 **** 0.06
4660 H 35.37779937829248 125.37390881246351 185.36104900534542 H 0.0 **** 0.06
4661 C 135.20450002125102 76.4612941371297 111.44062898386836 C 0.0 **** -0.24
4662 H 136.1616410769485 76.47092641460114 111.96118862501858 H 0.0 **** 0.06
4663 H 134.79733041821373 77.4727110938511 111.4105820709061 H 0.0 **** 0.06
4664 H 134.51149062937213 75.8058912932164 111.96705676802806 H 0.0 **** 0.06
4665 H 135.34849292683248 76.09766837510125 110.42361646136978 H 0.0 **** 0.06
4666 C 183.0858976005011 15.469923470525018 53.60181573109672 C 0.0 **** -0.24
4667 H 183.28547136213638 15.107867170735673 52.59342905909334 H 0.0 **** 0.06
4668 H 183.8650320642211 15.114014595657551 54.27689463003149 H 0.0 **** 0.06
4669 H 182.11766683339653 15.097495046147898 53.93659833154375 H 0.0 **** 0.06
4670 H 183.07636889228093 16.559929475916803 53.601315418184925 H 0.0 **** 0.06
4671 C 185.64060783128113 23.444380238214364 102.57605572248713 C 0.0 **** -0.24
4672 H 185.3876016426865 24.47312212364926 102.82932852138634 H 0.0 **** 0.06
4673 H 186.57855648211728 23.426958906574896 102.02097107722477 H 0.0 **** 0.06
4674 H 184.84708225143942 23.01518109878765 101.96451963557809 H 0.0 **** 0.06
4675 H 185.74904060896358 22.860983742028054 103.49123440670121 H 0.0 **** 0.06
4676 C 167.65833326228034 187.9356096802283 51.30541002687514 C 0.0 **** -0.24
4677 H 166.99915172761564 188.1524518564877 50.4657283691909 H 0.0 **** 0.06
4678 H 168.58705921476135 188.49458526291596 51.192010135137636 H 0.0 **** 0.06
4679 H 167.87719427321792 186.8683058295302 51.329914658415106 H 0.0 **** 0.06
4680 H 167.16968755117267 188.22677599643936 52.23567219216946 H 0.0 **** 0.06
4681 C 0.6673141852977977 58.66445711661197 158.11695147152346 C 0.0 **** -0.24
4682 H -0.317534341039746 58.20735769435214 158.21317847086488 H 0.0 **** 0.06
4683 H 1.409358759825814 57.89052734602285 157.91662243258924 H 0.0 **** 0.06
4684 H 0.9200857240041032 59.18036310958939 159.04302527251258 H 0.0 **** 0.06
4685 H 0.6561629955743697 59.37936402651161 157.2942365164144 H 0.0 **** 0.06
4686 C 133.55574915740806 151.50813775987945 52.654987582042025 C 0.0 **** -0.24
4687 H 132.55077011327444 151.0868590393966 52.642558226177414 H 0.0 **** 0.06
4688 H 133.92119151687035 151.60551470240944 51.6321636635586 H 0.0 **** 0.06
4689 H 134.21873871698688 150.84910735264765 53.21692968689787 H 0.0 **** 0.06
4690 H 133.53321063633751 152.4890508977636 53.12859453828864 H 0.0 **** 0.06
4691 C 19.388872035946903 103.50237629540995 69.40275754677555 C 0.0 **** -0.24
4692 H 19.007112705549716 103.66933761113744 68.39540067151248 H 0.0 **** 0.06
4693 H 20.232408765780477 102.8131244805649 69.36133458443292 H 0.0 **** 0.06
4694 H 18.601303120609714 103.07724237907216 70.0239768907632 H 0.0 **** 0.06
4695 H 19.715615724862133 104.45140163890177 69.82908091440284 H 0.0 **** 0.06
4696 C 27.20227407471586 102.96461850193246 207.20107306278953 C 0.0 **** -0.24
4697 H 27.134194312928713 103.24413370062216 208.2526820897547 H 0.0 **** 0.06
4698 H 27.22576181218534 101.87784991438606 207.11571784302078 H 0.0 **** 0.06
4699 H 28.11193669094962 103.38363666146095 206.77243939517456 H 0.0 **** 0.06
4700 H 26.335157996739326 103.35306615901739 206.66605504689136 H 0.0 **** 0.06
4701 C 189.08693074648568 187.6680174874389 59.56851800531064 C 0.0 **** -0.24
4702 H 188.7188578498396 188.59651731543767 59.13200506238519 H 0.0 **** 0.06
4703 H 189.6928906474251 187.895611158613 60.44581377354774 H 0.0 **** 0.06
4704 H 189.69437078800007 187.13683008373263 58.83516768720301 H 0.0 **** 0.06
4705 H 188.24212658542137 187.04470125729273 59.861531559374555 H 0.0 **** 0.06
4706 C 101.37198720899862 46.2446113476265 109.81715559816227 C 0.0 **** -0.24
4707 H 102.19460516173864 45.741974371991105 109.30874837313179 H 0.0 **** 0.06
4708 H 100.50617475085566 45.58259862321998 109.84797911589727 H 0.0 **** 0.06
4709 H 101.11470579114864 47.15616595945883 109.27748847594164 H 0.0 **** 0.06
4710 H 101.67348016878653 46.497030408647404 110.83369322516579 H 0.0 **** 0.06
4711 C 192.65515979096398 70.34132367367272 103.00118086967497 C 0.0 **** -0.24
4712 H 191.81402486683302 70.13096411625247 102.34106571104921 H 0.0 **** 0.06
4713 H 193.21608784326372 71.19250880746512 102.61613838741046 H 0.0 **** 0.06
4714 H 193.30635422706325 69.46821265759291 103.0486582918296 H 0.0 **** 0.06
4715 H 192.28399898904937 70.57167591680724 104.0003553579378 H 0.0 **** 0.06
4716 C 159.6596345754779 182.09072116792942 136.20295387308818 C 0.0 **** -0.24
4717 H 159.2668286245878 181.30830125758956 135.55406813907229 H 0.0 **** 0.06
4718 H 160.74729869827854 182.02176807934285 136.2383993217191 H 0.0 **** 0.06
4719 H 159.25389409046292 181.9664130991423 137.2075176184821 H 0.0 **** 0.06
4720 H 159.37021425557234 183.065813610425 135.81258004669854 H 0.0 **** 0.06
4721 C 170.1962890203177 127.07575753814388 212.48802723382127 C 0.0 **** -0.24
4722 H 171.08466319223382 127.62724944698874 212.18161880188484 H 0.0 **** 0.06
4723 H 170.46814019999468 126.34212594098722 213.24803695748275 H 0.0 **** 0.06
4724 H 169.77011504759574 126.56513723094514 211.62524350620373 H 0.0 **** 0.06
4725 H 169.46216513792967 127.76927205890922 212.89953894783633 H 0.0 **** 0.06
4726 C 95.44546977324084 45.074103082274576 123.16190162559171 C 0.0 **** -0.24
4727 H 95.62512497234322 44.34017855908559 122.3770055041929 H 0.0 **** 0.06
4728 H 95.63694784106217 44.619679321738715 124.13422324936597 H 0.0 **** 0.06
4729 H 94.4090551968785 45.40923863352015 123.11593279898197 H 0.0 **** 0.06
4730 H 96.10996707569971 45.92668676737122 123.02143976958034 H 0.0 **** 0.06
4731 C 79.41202619666161 86.31680341691856 118.01716437584149 C 0.0 **** -0.24
4732 H 78.54757158999023 86.09856352534945 117.39069274272471 H 0.0 **** 0.06
4733 H 79.95596229565659 87.16554699050783 117.60260918902183 H 0.0 **** 0.06
4734 H 80.06594410560778 85.44538716705381 118.04952520294252 H 0.0 **** 0.06
4735 H 79.07706826651575 86.55763240793692 119.02658140363165 H 0.0 **** 0.06
4736 C 153.72946764455713 166.20967411518112 145.90632693540448 C 0.0 **** -0.24
4737 H 153.1779025774054 167.1498609621575 145.91666178793247 H 0.0 **** 0.06
4738 H 153.5577790492544 165.67748796378208 146.8429902131909 H 0.0 **** 0.06
4739 H 154.7941304063848 166.41458462879285 145.79436702997447 H 0.0 **** 0.06
4740 H 153.3870229618551 165.59729635236573 145.07209060579606 H 0.0 **** 0.06
4741 C 104.9800205165515 191.38325016142772 142.13322751611037 C 0.0 **** -0.24
4742 H 105.0705944987612 191.95075116029636 143.05883763287733 H 0.0 **** 0.06
4743 H 104.94489798732418 190.31795195359962 142.36175383112635 H 0.0 **** 0.06
4744 H 105.83842572056044 191.58965680709136 141.49462832652148 H 0.0 **** 0.06
4745 H 104.0644954503732 191.6734454982438 141.6168026201596 H 0.0 **** 0.06
4746 C 128.51295529876393 168.43155678887285 160.0755723876628 C 0.0 **** -0.24
4747 H 127.95068109672245 169.27574228189462 160.47532696270918 H 0.0 **** 0.06
4748 H 128.7901116601941 168.63569456102488 159.0412502611084 H 0.0 **** 0.06
4749 H 127.89692408735955 167.53286978924714 160.11651590872796 H 0.0 **** 0.06
4750 H 129.41341067110238 168.28064756215383 160.67089890543497 H 0.0 **** 0.06
4751 C 213.3861724715216 81.92656502878144 176.91646483120368 C 0.0 **** -0.24
4752 H 212.56434611663354 81.22879508954382 176.75909687682758 H 0.0 **** 0.06
4753 H 214.2193749169982 81.65858257263251 176.26730521012783 H 0.0 **** 0.06
4754 H 213.7077223280373 81.88101724474429 177.9578740965752 H 0.0 **** 0.06
4755 H 213.05312280514542 82.93801778615544 176.68357348831583 H 0.0 **** 0.06
4756 C 100.66521117492455 57.245875516488695 100.29936621141593 C 0.0 **** -0.24
4757 H 100.61108461793889 57.846579900765505 101.20826979560206 H 0.0 **** 0.06
4758 H 101.53371019504694 56.589980662012636 100.34819763309343 H 0.0 **** 0.06
4759 H 100.75340718016044 57.904504700652296 99.4345666844078 H 0.0 **** 0.06
4760 H 99.76046795958517 56.645262562806295 100.2069653116422 H 0.0 **** 0.06
4761 C 110.25880435016528 36.630597924823846 89.78074862980871 C 0.0 **** -0.24
4762 H 110.48827098026122 35.66165975944841 89.3380681319782 H 0.0 **** 0.06
4763 H 110.15873559916314 37.37613824315255 88.99179995051502 H 0.0 **** 0.06
4764 H 111.06430595494332 36.92167861384442 90.4550707610628 H 0.0 **** 0.06
4765 H 109.32528384012186 36.56301256915049 90.33775741153481 H 0.0 **** 0.06
4766 C 157.89442315796822 42.97598663600593 42.120599511454046 C 0.0 **** -0.24
4767 H 158.59266415238778 43.702904602841244 42.53708353517099 H 0.0 **** 0.06
4768 H 156.87762042431103 43.35718196823788 42.208482593731546 H 0.0 **** 0.06
4769 H 157.980420950275 42.036995975586464 42.66715422166723 H 0.0 **** 0.06
4770 H 158.12978953024236 42.807164778057995 41.069914504782034 H 0.0 **** 0.06
4771 C 200.55880276585756 7.146901268445205 56.02622866565122 C 0.0 **** -0.24
4772 H 199.70156568014426 7.024653555385001 56.68764320893388 H 0.0 **** 0.06
4773 H 201.35782252268183 6.475288595985532 56.341101643511024 H 0.0 **** 0.06
4774 H 200.90956423160742 8.177195103072265 56.07316609292309 H 0.0 **** 0.06
4775 H 200.26498930479664 6.908815607329899 55.00429178293723 H 0.0 **** 0.06
4776 C 120.30628746611058 134.84719204535992 54.5916745098928 C 0.0 **** -0.24
4777 H 120.01795792458506 133.82470122772622 54.34756645630985 H 0.0 **** 0.06
4778 H 120.0547302968119 135.5048977067691 53.75853561272385 H 0.0 **** 0.06
4779 H 121.38004805579385 134.88862387244365 54.77515949707448 H 0.0 **** 0.06
4780 H 119.77225909416137 135.17225531239518 55.48520779218167 H 0.0 **** 0.06
4781 C 120.74660144277449 156.27265675854238 152.55837025048396 C 0.0 **** -0.24
4782 H 121.02456561565442 156.4249647751813 151.51471305097004 H 0.0 **** 0.06
4783 H 119.88175554009068 156.891512357966 152.7966986839744 H 0.0 **** 0.06
4784 H 121.5820030351958 156.55101668811307 153.20018334798164 H 0.0 **** 0.06
4785 H 120.49827263938822 155.22317086641687 152.717647713769 H 0.0 **** 0.06
4786 C 113.35276383541247 107.19710261277886 110.13525345706911 C 0.0 **** -0.24
4787 H 113.94567681689375 106.54319960472172 109.49485576152726 H 0.0 **** 0.06
4788 H 112.33740659096009 107.26576513794545 109.74292160055744 H 0.0 **** 0.06
4789 H 113.80222425558736 108.1902205626083 110.15545779608509 H 0.0 **** 0.06
4790 H 113.32613027647778 106.78915030288594 111.14581701649514 H 0.0 **** 0.06
4791 C 112.8031429750638 152.760425988235 100.58884076606911 C 0.0 **** -0.24
4792 H 113.25631002482699 151.97602226244368 99.98180240294359 H 0.0 **** 0.06
4793 H 111.75963402141058 152.88729080889516 100.29777282708558 H 0.0 **** 0.06
4794 H 113.33991196042429 153.69632575239274 100.43295353656107 H 0.0 **** 0.06
4795 H 112.85567250110081 152.4816711236619 101.64117412916129 H 0.0 **** 0.06
4796 C 49.15726717832712 205.45965764997945 155.6636380847237 C 0.0 **** -0.24
4797 H 48.096407431224264 205.4128719540958 155.9089069711502 H 0.0 **** 0.06
4798 H 49.28479602023137 205.37600234900268 154.5837971972008 H 0.0 **** 0.06
4799 H 49.68021717829731 204.64072765259547 156.15579462864457 H 0.0 **** 0.06
4800 H 49.56672723824482 206.4102944187385 156.00445668763638 H 0.0 **** 0.06
4801 C 172.07198105137184 48.54255764428639 64.89593683561475 C 0.0 **** -0.24
4802 H 171.1637938272758 48.90390056823264 65.37744735376918 H 0.0 **** 0.06
4803 H 171.88078592367884 47.56923106411408 64.44332779953851 H 0.0 **** 0.06
4804 H 172.8645156869003 48.448396199570354 65.63855963127952 H 0.0 **** 0.06
4805 H 172.37971389388895 49.248357885614965 64.12472503236012 H 0.0 **** 0.06
4806 C 205.94815669486897 19.846272027667283 214.06100420553247 C 0.0 **** -0.24
4807 H 206.27842536712384 19.755524268898085 215.09652031383388 H 0.0 **** 0.06
4808 H 205.24324962384418 19.045931522583203 213.83351079404449 H 0.0 **** 0.06
4809 H 206.8101691219341 19.77141652486864 213.39820682798262 H 0.0 **** 0.06
4810 H 205.46261868766575 20.81110010020373 213.91867448180807 H 0.0 **** 0.06
4811 C 112.02483745832122 13.161690671239171 201.16406118276902 C 0.0 **** -0.24
4812 H 111.67769548645079 13.242431796144103 200.1345183522668 H 0.0 **** 0.06
4813 H 113.11240354759606 13.088658135226325 201.17699911812204 H 0.0 **** 0.06
4814 H 111.59571655153589 12.27166846305198 201.6235672671238 H 0.0 **** 0.06
4815 H 111.71388676195501 14.044331595097617 201.72282392152783 H 0.0 **** 0.06
4816 C 213.08581985690324 153.83438131542022 97.43177030665417 C 0.0 **** -0.24
4817 H 212.69196355021822 154.62184741253867 96.78849469858248 H 0.0 **** 0.06
4818 H 214.12873704312983 153.64503950693125 97.17627163578034 H 0.0 **** 0.06
4819 H 212.5051311609754 152.92296582006753 97.2870202384451 H 0.0 **** 0.06
4820 H 213.0173546669174 154.14799403716495 98.47308375746339 H 0.0 **** 0.06
4821 C 84.34483378815428 61.036367574105384 178.95194630930143 C 0.0 **** -0.24
4822 H 83.97319304792735 60.43778955580808 178.11982752855158 H 0.0 **** 0.06
4823 H 85.43109784988322 60.95349174077387 179.00334810359345 H 0.0 **** 0.06
4824 H 83.90853917055465 60.67378057741229 179.8827066510279 H 0.0 **** 0.06
4825 H 84.06575700031651 62.079951540187665 178.80238425019246 H 0.0 **** 0.06
4826 C 38.825006557625144 56.383887716359354 122.72086436105452 C 0.0 **** -0.24
4827 H 39.81309692086849 55.927956613900875 122.78800906103025 H 0.0 **** 0.06
4828 H 38.92759689239476 57.42850148358342 122.4238147540194 H 0.0 **** 0.06
4829 H 38.33196163320508 56.32806648094008 123.69109104562988 H 0.0 **** 0.06
4830 H 38.22907811896141 55.85213005498582 121.97917627266786 H 0.0 **** 0.06
4831 C 84.434613929656 166.9481062340356 114.28230046415483 C 0.0 **** -0.24
4832 H 85.13598741760978 167.78115626786177 114.23162488478162 H 0.0 **** 0.06
4833 H 83.5983203732012 167.1365647138652 113.6089962031851 H 0.0 **** 0.06
4834 H 84.0649373796715 166.8464248787759 115.30268778695459 H 0.0 **** 0.06
4835 H 84.94055827053393 166.02928048174613 113.98546768061793 H 0.0 **** 0.06
4836 C 17.569667903335173 41.57065255621012 24.033684549698734 C 0.0 **** -0.24
4837 H 17.368008275818752 42.63462901301784 23.9126861284317 H 0.0 **** 0.06
4838 H 17.28829929817408 41.26117655640701 25.040938973372306 H 0.0 **** 0.06
4839 H 18.63213835157282 41.382358717245666 23.87871643342612 H 0.0 **** 0.06
4840 H 16.990165683538848 41.00536576737562 23.304171594977632 H 0.0 **** 0.06
4841 C 16.003666046483772 75.55456763677336 176.64359342547914 C 0.0 **** -0.24
4842 H 15.587539883123512 76.38100328592424 176.06692256539372 H 0.0 **** 0.06
4843 H 17.07349013295567 75.47718496805237 176.44612568882206 H 0.0 **** 0.06
4844 H 15.511481975234815 74.62670343084051 176.35448277313128 H 0.0 **** 0.06
4845 H 15.842045786670539 75.73697889948852 177.70667347127926 H 0.0 **** 0.06
4846 C 20.695371993068264 120.36357676026141 22.409209071013436 C 0.0 **** -0.24
4847 H 21.404604014380695 120.19259087852932 21.59905111522754 H 0.0 **** 0.06
4848 H 19.790523765182655 120.82123894025666 22.010023474001684 H 0.0 **** 0.06
4849 H 21.14329925026982 121.02796749087126 23.14872734679244 H 0.0 **** 0.06
4850 H 20.44525325666551 119.41218357894981 22.87933009736497 H 0.0 **** 0.06
4851 C 152.1879758097204 88.97908168359787 130.66257411877984 C 0.0 **** -0.24
4852 H 151.3354388285319 88.3005813663732 130.64519190337398 H 0.0 **** 0.06
4853 H 151.84112662566878 90.0017471100658 130.5091784460467 H 0.0 **** 0.06
4854 H 152.88452237735152 88.70781737662304 129.86888482079178 H 0.0 **** 0.06
4855 H 152.69081540732935 88.9061808813297 131.6270413049068 H 0.0 **** 0.06
4856 C 96.35056880003394 209.95495096722732 178.15491913515828 C 0.0 **** -0.24
4857 H 95.57528408042883 210.50726336271305 177.62223744045139 H 0.0 **** 0.06
4858 H 95.95533218879505 209.60218948933226 179.107148354143 H 0.0 **** 0.06
4859 H 97.20358888061826 210.609393485286 178.33410303054612 H 0.0 **** 0.06
4860 H 96.66634167991124 209.1027859083271 177.55341823691924 H 0.0 **** 0.06
4861 C 29.36740955289109 56.959334009638695 177.86009829859785 C 0.0 **** -0.24
4862 H 28.790072231325567 57.1436260864854 176.95380684800693 H 0.0 **** 0.06
4863 H 30.05131810148383 57.79155457283443 178.02969542319477 H 0.0 **** 0.06
4864 H 29.936397513039537 56.03771993345252 177.74751813463212 H 0.0 **** 0.06
4865 H 28.689121545288955 56.8676304826227 178.70878492484138 H 0.0 **** 0.06
4866 C 65.57302579933054 83.67659212152394 128.0764907706137 C 0.0 **** -0.24
4867 H 65.48089235640195 83.29844280229413 127.05791938260126 H 0.0 **** 0.06
4868 H 66.39117871278833 83.1620073458058 128.58176938561354 H 0.0 **** 0.06
4869 H 64.64326071301453 83.49960938107343 128.6155075610639 H 0.0 **** 0.06
4870 H 65.77970535949378 84.74675357176723 128.04848760304515 H 0.0 **** 0.06
4871 C 147.1887440131236 116.71637156599262 123.69849897337657 C 0.0 **** -0.24
4872 H 147.2257904917903 115.74350346178745 123.20861190235804 H 0.0 **** 0.06
4873 H 147.87768706758197 117.39963073902622 123.20106302691353 H 0.0 **** 0.06
4874 H 147.47671482572775 116.60843754058389 124.74417587972066 H 0.0 **** 0.06
4875 H 146.1758879178356 117.11452701489789 123.6395082815517 H 0.0 **** 0.06
4876 C 87.88048657149533 20.261187241304498 146.07236418704014 C 0.0 **** -0.24
4877 H 88.29869168510665 19.29250338242474 146.34437923528571 H 0.0 **** 0.06
4878 H 86.89443054505325 20.371484441579312 146.52483208156565 H 0.0 **** 0.06
4879 H 87.79193401155204 20.32747450258063 144.9877838131776 H 0.0 **** 0.06
4880 H 88.53689004426933 21.05328663863328 146.43246161813147 H 0.0 **** 0.06
4881 C 55.130816848150644 14.442139128106845 17.389880726382444 C 0.0 **** -0.24
4882 H 56.11154930844384 14.761972033178381 17.741262117855314 H 0.0 **** 0.06
4883 H 54.68708672927953 15.23185453177635 16.782429227158843 H 0.0 **** 0.06
4884 H 54.487371975354904 14.237429081749639 18.246350604662098 H 0.0 **** 0.06
4885 H 55.237342472636456 13.538374429123536 16.790397793384102 H 0.0 **** 0.06
4886 C 194.0616976694439 83.04448349679666 142.03727836123284 C 0.0 **** -0.24
4887 H 193.50934290899076 83.94450425099865 142.3098733354347 H 0.0 **** 0.06
4888 H 194.35587415632537 82.51170185542873 142.94146089320884 H 0.0 **** 0.06
4889 H 194.9507876605713 83.32248794667441 141.47225921842448 H 0.0 **** 0.06
4890 H 193.42834527594147 82.4012016683028 141.42596143785988 H 0.0 **** 0.06
4891 C 188.86420321523306 107.39193896044623 207.18214362819407 C 0.0 **** -0.24
4892 H 188.23465449876795 108.0110209037183 206.54240375087622 H 0.0 **** 0.06
4893 H 189.60269866507355 108.01998629989623 207.68120991629377 H 0.0 **** 0.06
4894 H 189.37302646039288 106.6428795355493 206.57508677195136 H 0.0 **** 0.06
4895 H 188.245055881715 106.89491265507007 207.92845492733375 H 0.0 **** 0.06
4896 C 40.66575079077363 37.60766339101893 86.06340004048225 C 0.0 **** -0.24
4897 H 41.245016774140495 36.70004111471725 86.23003090085406 H 0.0 **** 0.06
4898 H 39.65347992305708 37.342395937303564 85.75730852471234 H 0.0 **** 0.06
4899 H 41.138243482459146 38.20150506969435 85.28005345191976 H 0.0 **** 0.06
4900 H 40.62582097170409 38.18820375913769 86.98460176240683 H 0.0 **** 0.06
4901 C 157.00606772096563 170.91469820992216 2.0190369446232808 C 0.0 **** -0.24
4902 H 157.98525716823588 171.23393397861784 1.6600847028474846 H 0.0 **** 0.06
4903 H 156.76271805554882 169.9413696783431 1.5925986111112707 H 0.0 **** 0.06
4904 H 156.2535410021871 171.64240428996598 1.7161367518941688 H 0.0 **** 0.06
4905 H 157.02467705017574 170.84184344678178 3.106473845878952 H 0.0 **** 0.06
4906 C 199.4369196514797 13.521661395939589 177.9257582204014 C 0.0 **** -0.24
4907 H 198.96023681928793 14.477359898928569 178.1440676062674 H 0.0 **** 0.06
4908 H 200.52026526984037 13.64790036016791 177.92924489457909 H 0.0 **** 0.06
4909 H 199.1149494573281 13.17070238746993 176.94516191699216 H 0.0 **** 0.06
4910 H 199.1542500276936 12.792033368157433 178.68426857165542 H 0.0 **** 0.06
4911 C 204.62354702431523 104.80690970165959 171.5245572280228 C 0.0 **** -0.24
4912 H 204.73552448868216 105.78082425617721 171.047477953723 H 0.0 **** 0.06
4913 H 205.28722960601567 104.74693407902514 172.3871037434909 H 0.0 **** 0.06
4914 H 204.879353375833 104.02210973545444 170.81282886910805 H 0.0 **** 0.06
4915 H 203.5913052550901 104.67895130005901 171.85074692324605 H 0.0 **** 0.06
4916 C 16.129419555074094 88.1345325067253 205.4048517878365 C 0.0 **** -0.24
4917 H 15.685070688958263 88.31866949641619 206.3832856388176 H 0.0 **** 0.06
4918 H 15.685979335116713 87.2405537384198 204.96713971535968 H 0.0 **** 0.06
4919 H 17.204899327483133 87.990893172509 205.51601906560447 H 0.0 **** 0.06
4920 H 15.943342327620826 88.98924000639524 204.75433853222168 H 0.0 **** 0.06
4921 C 179.6524344893907 151.82412396061363 1.6123656160700648 C 0.0 **** -0.24
4922 H 180.71511559734867 151.58253571029138 1.6372075090800706 H 0.0 **** 0.06
4923 H 179.387195712976 152.3892522195311 2.5064146052737897 H 0.0 **** 0.06
4924 H 179.07128106404906 150.902744153912 1.5782909884579226 H 0.0 **** 0.06
4925 H 179.43705002325171 152.42210497077372 0.7271467893899057 H 0.0 **** 0.06
4926 C 84.60230184900426 92.26036968431812 130.95333598608568 C 0.0 **** -0.24
4927 H 85.08949974282199 92.98706427572678 130.30298198640446 H 0.0 **** 0.06
4928 H 83.56329043902626 92.55340596996929 131.1101358396192 H 0.0 **** 0.06
4929 H 85.11893643545058 92.22691690994459 131.91182788980416 H 0.0 **** 0.06
4930 H 84.63650970509217 91.2760473555574 130.48728824380402 H 0.0 **** 0.06
4931 C 104.32585961661368 190.0559808764941 216.62354712933987 C 0.0 **** -0.24
4932 H 105.08014311343265 190.84112924216294 216.66032435221527 H 0.0 **** 0.06
4933 H 104.5891645883899 189.33507754639842 215.8485774249693 H 0.0 **** 0.06
4934 H 103.35467815562316 190.4953574942314 216.39660244822474 H 0.0 **** 0.06
4935 H 104.27927099205687 189.55140762678468 217.58893227687926 H 0.0 **** 0.06
4936 C 152.33642411939252 193.74891184898027 68.61484139597829 C 0.0 **** -0.24
4937 H 151.84335896091608 193.2476826114874 69.44836293414191 H 0.0 **** 0.06
4938 H 153.4120028823683 193.58752952245334 68.67902229544768 H 0.0 **** 0.06
4939 H 152.1253956461066 194.81746495901984 68.6586178021291 H 0.0 **** 0.06
4940 H 151.96237673571642 193.34327094106743 67.67519139022316 H 0.0 **** 0.06
4941 C 135.06998931760984 68.18109800409255 24.250854517308497 C 0.0 **** -0.24
4942 H 134.23014001306234 68.79993550461788 23.93483484784595 H 0.0 **** 0.06
4943 H 135.9964339563287 68.7477169205788 24.14820218223349 H 0.0 **** 0.06
4944 H 135.11885516797145 67.28849269197076 23.626447568607006 H 0.0 **** 0.06
4945 H 134.93482919855364 67.88970008296482 25.29226083751044 H 0.0 **** 0.06
4946 C 97.11055392585267 69.23490343130027 176.69925078674407 C 0.0 **** -0.24
4947 H 96.9100001882464 69.16300362274328 175.62959253420348 H 0.0 **** 0.06
4948 H 98.14069275180138 69.55619147295084 176.85458635144477 H 0.0 **** 0.06
4949 H 96.96041782079168 68.25952197012825 177.16238823606835 H 0.0 **** 0.06
4950 H 96.43216879261159 69.9596945572199 177.1479015971128 H 0.0 **** 0.06
4951 C 85.66471752375492 215.04324371398974 35.716316164291385 C 0.0 **** -0.24
4952 H 85.49493097432827 214.05295980254297 36.139173637135855 H 0.0 **** 0.06
4953 H 86.00255754520771 214.94419965209144 34.68514425034664 H 0.0 **** 0.06
4954 H 86.42649808913853 215.561144127727 36.299502821698326 H 0.0 **** 0.06
4955 H 84.73634316053989 215.6135556658026 35.743064093714736 H 0.0 **** 0.06
4956 C 56.45883705751962 79.48857901058476 64.94348880904589 C 0.0 **** -0.24
4957 H 55.75660671414336 80.24781658534054 65.28786794264774 H 0.0 **** 0.06
4958 H 57.44401127686436 79.68635779037147 65.36702329972896 H 0.0 **** 0.06
4959 H 56.518923006824025 79.51588635228457 63.85619211610749 H 0.0 **** 0.06
4960 H 56.11555883655386 78.5050140857012 65.2647056261555 H 0.0 **** 0.06
4961 C 156.3653369815304 21.642421579798736 70.68260681769063 C 0.0 **** -0.24
4962 H 156.8269912564819 22.514944340389718 70.21976720350433 H 0.0 **** 0.06
4963 H 157.11526427435007 21.09543544997834 71.25419790342941 H 0.0 **** 0.06
4964 H 155.95463424329046 20.99520677611639 69.90844315614326 H 0.0 **** 0.06
4965 H 155.5655371886832 21.965400278979416 71.34839895782032 H 0.0 **** 0.06
4966 C 178.4566965225856 155.28031201513312 119.22689288529041 C 0.0 **** -0.24
4967 H 178.25197889739718 156.325863775684 118.99725547144287 H 0.0 **** 0.06
4968 H 179.08334717468628 155.22054764919864 120.11702451928112 H 0.0 **** 0.06
4969 H 178.97316365506518 154.8177286848009 118.38623273466509 H 0.0 **** 0.06
4970 H 177.51642060136862 154.7582269805228 119.40753774677911 H 0.0 **** 0.06
4971 C 140.31320440276255 117.30096761984505 146.31895565463833 C 0.0 **** -0.24
4972 H 141.28085342911436 117.37104697626485 146.81391560323766 H 0.0 **** 0.06
4973 H 139.62354140876278 116.73477684359644 146.94611203106314 H 0.0 **** 0.06
4974 H 140.4309905206792 116.79480422566344 145.36017559312648 H 0.0 **** 0.06
4975 H 139.91565456118252 118.30268980366371 146.1543806424765 H 0.0 **** 0.06
4976 C 172.2500577540327 73.94949738691601 103.52684481246179 C 0.0 **** -0.24
4977 H 172.1897176354879 74.89298663735299 104.07046348574299 H 0.0 **** 0.06
4978 H 171.2499561136012 73.63955794738153 103.22553538429342 H 0.0 **** 0.06
4979 H 172.68946138414464 73.18734025600595 104.17155414219452 H 0.0 **** 0.06
4980 H 172.87321311201407 74.07973449370981 102.6422472614146 H 0.0 **** 0.06
4981 C 173.82273672678753 53.32177905623186 189.62363986167355 C 0.0 **** -0.24
4982 H 173.88701574236683 52.2959457968862 189.9856280640297 H 0.0 **** 0.06
4983 H 174.77096234846854 53.60454131955062 189.16488520622926 H 0.0 **** 0.06
4984 H 173.60929505201008 53.988507032665936 190.4589760752014 H 0.0 **** 0.06
4985 H 173.0246162800176 53.39707290073409 188.88496555622942 H 0.0 **** 0.06
4986 C 169.69294951340459 214.6766540572026 19.932979226652265 C 0.0 **** -0.24
4987 H 169.36858479874525 215.11990428374372 18.99127125073548 H 0.0 **** 0.06
4988 H 169.43710406582716 213.6165436511418 19.94215485450286 H 0.0 **** 0.06
4989 H 169.1939391523332 215.179149658612 20.761974388084354 H 0.0 **** 0.06
4990 H 170.77153676524705 214.79093208248253 20.034906591338085 H 0.0 **** 0.06
4991 C 50.54423369827401 139.40482447413194 63.00221307010986 C 0.0 **** -0.24
4992 H 50.93936434341953 139.7917068210013 62.06305389567524 H 0.0 **** 0.06
4993 H 50.700679794492885 140.13906556081776 63.79296005569 H 0.0 **** 0.06
4994 H 51.05935471863279 138.47861400714407 63.25876843979006 H 0.0 **** 0.06
4995 H 49.47695856576661 139.20832947834793 62.8936650715699 H 0.0 **** 0.06
4996 C 138.32859560749813 45.63450808643127 135.8730738593431 C 0.0 **** -0.24
4997 H 138.73708097858702 44.663585453347736 136.15256280620991 H 0.0 **** 0.06
4998 H 139.11431954707615 46.245416979598744 135.427889220292 H 0.0 **** 0.06
4999 H 137.93935087187924 46.13408372336839 136.75979356862763 H 0.0 **** 0.06
5000 H 137.5236310324501 45.49494618941026 135.15204984224277 H 0.0 **** 0.06
5001 C 166.9779383958076 48.948670112511195 203.35962029745505 C 0.0 **** -0.24
5002 H 166.43323203814276 49.08293800508034 202.42475813449482 H 0.0 **** 0.06
5003 H 167.13384478428299 47.88420779315669 203.5387273282492 H 0.0 **** 0.06
5004 H 166.40156590119892 49.37539387966768 204.180832036638 H 0.0 **** 0.06
5005 H 167.94304883054662 49.450960924252 203.29338642262394 H 0.0 **** 0.06
5006 C 94.11899411263106 193.52798706946464 83.49490128459784 C 0.0 **** -0.24
5007 H 93.25833779364147 193.94078238110316 84.02060924315505 H 0.0 **** 0.06
5008 H 94.4960388090246 192.6626349812 84.04071096802478 H 0.0 **** 0.06
5009 H 94.90097973104714 194.2852961303195 83.4278517542155 H 0.0 **** 0.06
5010 H 93.82073204289343 193.22370510284082 82.49130855339986 H 0.0 **** 0.06
5011 C 8.35534628188745 43.40941756235884 9.857540565557855 C 0.0 **** -0.24
5012 H 8.260879605433672 42.55844463134365 9.181591391206751 H 0.0 **** 0.06
5013 H 9.344213081746148 43.853515848513 9.745615176773782 H 0.0 **** 0.06
5014 H 8.220682860455739 43.07333313817202 10.884975301097057 H 0.0 **** 0.06
5015 H 7.594543710445976 44.15039363937596 9.614526127238406 H 0.0 **** 0.06
5016 C 20.986214650163504 63.70667080962228 211.9045065747499 C 0.0 **** -0.24
5017 H 20.901596645950235 63.888680542496004 212.9761396262367 H 0.0 **** 0.06
5018 H 21.371251825376362 62.70053874892136 211.73642683557398 H 0.0 **** 0.06
5019 H 21.668283396471793 64.4349971028565 211.46597131886898 H 0.0 **** 0.06
5020 H 20.00447398949987 63.80257824616373 211.44181860389907 H 0.0 **** 0.06
5021 C 53.06632127019594 102.63045678964353 188.4620859947097 C 0.0 **** -0.24
5022 H 53.77749352379914 102.05058133035733 187.87208714023578 H 0.0 **** 0.06
5023 H 52.297291508919585 103.0376192937537 187.8055907095831 H 0.0 **** 0.06
5024 H 53.58850039244447 103.44609145523346 188.96176407595323 H 0.0 **** 0.06
5025 H 52.60279893406363 101.98410040512512 189.20765129127906 H 0.0 **** 0.06
5026 C 41.89679791555375 211.90855867563815 176.27015755432086 C 0.0 **** -0.24
5027 H 42.45961450806942 212.10213370106413 175.3564440618124 H 0.0 **** 0.06
5028 H 41.04768936493775 211.26397498470754 176.04282372007447 H 0.0 **** 0.06
5029 H 41.53773278120195 212.85177071315994 176.6818776267225 H 0.0 **** 0.06
5030 H 42.543351953320325 211.41691920499537 176.9962833183115 H 0.0 **** 0.06
5031 C 138.57702231469221 39.93968734179626 197.3715064710542 C 0.0 **** -0.24
5032 H 139.44688157353625 39.92760973804303 196.71550028074353 H 0.0 **** 0.06
5033 H 138.18898935975523 38.92719439797611 197.479740429659 H 0.0 **** 0.06
5034 H 137.8061550425075 40.57998977402218 196.94073668432654 H 0.0 **** 0.06
5035 H 138.86441935277446 40.32575308909907 198.3497913619717 H 0.0 **** 0.06
5036 C 143.79900310723298 52.06154705196536 30.556496598272744 C 0.0 **** -0.24
5037 H 143.02614024698693 51.72711339816068 31.248290108643715 H 0.0 **** 0.06
5038 H 144.7135870812043 52.27852979270746 31.109344497610692 H 0.0 **** 0.06
5039 H 143.4617239866007 52.96226367359179 30.04329828927709 H 0.0 **** 0.06
5040 H 143.99387352127928 51.277286434493845 29.82432041760424 H 0.0 **** 0.06
5041 C 42.41715740884918 87.0968061396833 81.48809179084037 C 0.0 **** -0.24
5042 H 42.250163261539285 87.53481498414438 80.50458870228215 H 0.0 **** 0.06
5043 H 42.753549847593945 87.87048239330151 82.17745838348827 H 0.0 **** 0.06
5044 H 43.17661667058917 86.31908797368685 81.41524811693967 H 0.0 **** 0.06
5045 H 41.486796779547404 86.66227027729236 81.85442610361798 H 0.0 **** 0.06
5046 C 153.6456675668009 108.35386718422082 41.55206621446638 C 0.0 **** -0.24
5047 H 152.80002096893202 107.81590956755558 41.12417421586508 H 0.0 **** 0.06
5048 H 154.52745287334784 108.19949592603392 40.928878961558155 H 0.0 **** 0.06
5049 H 153.84179470263723 107.9813496779159 42.55807963933245 H 0.0 **** 0.06
5050 H 153.41477982054784 109.41779606358163 41.59662303572395 H 0.0 **** 0.06
5051 C 62.46999353591593 150.82317669137723 160.40497908367678 C 0.0 **** -0.24
5052 H 61.61579709754602 150.47908019165823 159.82136003861854 H 0.0 **** 0.06
5053 H 62.80493972510146 150.02397994540598 161.06596451711494 H 0.0 **** 0.06
5054 H 62.176987934180886 151.68927096378974 160.99972154240666 H 0.0 **** 0.06
5055 H 63.280063343867724 151.1031091324473 159.73200444773192 H 0.0 **** 0.06
5056 C 52.896060935228434 137.22672909086185 55.83467110286098 C 0.0 **** -0.24
5057 H 52.453178909334326 136.27244751589143 56.118946172341396 H 0.0 **** 0.06
5058 H 53.21844873266707 137.18192969666762 54.79413601534432 H 0.0 **** 0.06
5059 H 53.75594244125426 137.43307070298818 56.47311381480888 H 0.0 **** 0.06
5060 H 52.157938906558 138.02009904549993 55.95252747026551 H 0.0 **** 0.06
5061 C 129.0213840307303 15.824806816464275 185.61572466820263 C 0.0 **** -0.24
5062 H 128.22973297738184 15.525639728570013 184.92980792686728 H 0.0 **** 0.06
5063 H 129.77476380953266 15.037496975591836 185.66771788478945 H 0.0 **** 0.06
5064 H 128.60026078781243 15.991295110650299 186.60804418677847 H 0.0 **** 0.06
5065 H 129.48276509595405 16.746159010383536 185.25776962292363 H 0.0 **** 0.06
5066 C 22.33553558971886 71.18955002877118 184.26282907064933 C 0.0 **** -0.24
5067 H 22.45310703752739 71.23989552252488 185.34504874028056 H 0.0 **** 0.06
5068 H 22.58864283664994 70.18678411153655 183.91588180493935 H 0.0 **** 0.06
5069 H 22.997168284354842 71.91556534964269 183.79121370414748 H 0.0 **** 0.06
5070 H 21.301727791885043 71.41404119586122 183.999484626011 H 0.0 **** 0.06
5071 C 153.13053598644223 13.505163107947453 119.26343185418843 C 0.0 **** -0.24
5072 H 153.75563875335064 13.009318158570295 118.52113848537688 H 0.0 **** 0.06
5073 H 152.08009050552243 13.369211530881785 119.00315772295956 H 0.0 **** 0.06
5074 H 153.3656617010135 14.569302117746474 119.28493077129265 H 0.0 **** 0.06
5075 H 153.31982840758485 13.07187675210048 120.24630441729015 H 0.0 **** 0.06
5076 C 193.91365862265397 0.777207082084125 7.870264985445004 C 0.0 **** -0.24
5077 H 194.08728677594337 0.5003682589281055 6.830086790069032 H 0.0 **** 0.06
5078 H 194.76102966896212 1.3568388293128635 8.237257484240445 H 0.0 **** 0.06
5079 H 193.80299403919807 -0.12469854934959557 8.47187508372943 H 0.0 **** 0.06
5080 H 193.0059557431749 1.3756797538897416 7.940208258370632 H 0.0 **** 0.06
5081 C 96.17884205541709 50.78576038459062 25.370557712101828 C 0.0 **** -0.24
5082 H 95.59107323834955 51.107100214312794 26.23073192535027 H 0.0 **** 0.06
5083 H 95.94793615740845 49.744923390533756 25.141861474089097 H 0.0 **** 0.06
5084 H 97.24033496132994 50.88155873657023 25.599382156927746 H 0.0 **** 0.06
5085 H 95.9344118206891 51.4103535452835 24.511030871396855 H 0.0 **** 0.06
5086 C 169.38469939277934 169.74934013794802 133.37125638619727 C 0.0 **** -0.24
5087 H 169.43054701774471 170.7691653132884 132.989387637243 H 0.0 **** 0.06
5088 H 169.23236748937393 169.05767193232757 132.54244806788802 H 0.0 **** 0.06
5089 H 168.5561941761926 169.6625326111563 134.07407691295555 H 0.0 **** 0.06
5090 H 170.31884138674747 169.50850454725014 133.8789798297825 H 0.0 **** 0.06
5091 C 3.680366396932527 146.17996693043722 117.91459585338133 C 0.0 **** -0.24
5092 H 3.7874069266156027 146.86923429124465 118.7529006829776 H 0.0 **** 0.06
5093 H 3.357655367780609 145.20594275660926 118.28463729137057 H 0.0 **** 0.06
5094 H 4.639100980760389 146.07519721935012 117.40559147103038 H 0.0 **** 0.06
5095 H 2.9385505191530967 146.5683365370358 117.21751309581093 H 0.0 **** 0.06
5096 C 27.75988441282334 56.17246083871099 96.21132167317471 C 0.0 **** -0.24
5097 H 28.632168982002213 56.12686181280975 96.86440782310966 H 0.0 **** 0.06
5098 H 27.017891410069183 55.447670812560474 96.54498456189428 H 0.0 **** 0.06
5099 H 28.060121361958238 55.94195219723504 95.18882145861413 H 0.0 **** 0.06
5100 H 27.332012466302047 57.174113409110134 96.24646216303664 H 0.0 **** 0.06
5101 C 70.32985595291409 100.03088191998863 61.958381633726844 C 0.0 **** -0.24
5102 H 69.32213801734116 100.07856207790836 62.37243153438163 H 0.0 **** 0.06
5103 H 70.78834871043661 101.01830295111641 62.00431878741571 H 0.0 **** 0.06
5104 H 70.2805273732064 99.69934765732994 60.921790663447496 H 0.0 **** 0.06
5105 H 70.92585331608986 99.32563199259762 62.53713789527825 H 0.0 **** 0.06
5106 C 123.06947453281869 61.15203482265524 128.78353569570868 C 0.0 **** -0.24
5107 H 122.00277095818193 61.31254007071763 128.6268203896757 H 0.0 **** 0.06
5108 H 123.47071526022769 60.55410389253649 127.96538802298382 H 0.0 **** 0.06
5109 H 123.22333708571448 60.62805303386378 129.7270628775065 H 0.0 **** 0.06
5110 H 123.58058058943912 62.114657607954186 128.81434350235872 H 0.0 **** 0.06
5111 C 52.068789297824424 75.27705021906132 68.32277841800678 C 0.0 **** -0.24
5112 H 51.225040191454866 74.61411394956872 68.13088499251552 H 0.0 **** 0.06
5113 H 52.90063000965432 75.00353523314021 67.67249482963376 H 0.0 **** 0.06
5114 H 52.37563516320574 75.1814082494231 69.36450408815267 H 0.0 **** 0.06
5115 H 51.774277738737624 76.30673805975368 68.12304857962584 H 0.0 **** 0.06
5116 C 107.75509695900098 31.836962029848465 201.9806792035108 C 0.0 **** -0.24
5117 H 106.93376057129365 31.169667236888415 202.2448351432051 H 0.0 **** 0.06
5118 H 107.36744018132885 32.67661498263442 201.40363650044992 H 0.0 **** 0.06
5119 H 108.48709055562034 31.292621434665364 201.38456779036116 H 0.0 **** 0.06
5120 H 108.22824829999661 32.20720771035164 202.88925889379345 H 0.0 **** 0.06
5121 C 76.86496690282274 83.14884013209313 9.98946844205642 C 0.0 **** -0.24
5122 H 76.38205600936283 84.08893975600536 10.258377205564898 H 0.0 **** 0.06
5123 H 77.92718796663098 83.20552354096877 10.229956613811225 H 0.0 **** 0.06
5124 H 76.7423399218942 82.97025438917744 8.921570094991068 H 0.0 **** 0.06
5125 H 76.40799289010783 82.3334261692183 10.54944249846119 H 0.0 **** 0.06
5126 C 188.51029312277225 77.88868914386727 154.49023844309306 C 0.0 **** -0.24
5127 H 187.80897732095318 77.98746654623984 153.66168047428647 H 0.0 **** 0.06
5128 H 188.42517894062277 78.75749351476436 155.14351303325532 H 0.0 **** 0.06
5129 H 189.52599488176685 77.82397070296487 154.10099869175212 H 0.0 **** 0.06
5130 H 188.27941332588338 76.98521939573844 155.05497738887817 H 0.0 **** 0.06
5131 C 180.29302330876686 43.94773824208059 41.14120212107679 C 0.0 **** -0.24
5132 H 180.34533320370556 43.028937360428756 41.72532090337137 H 0.0 **** 0.06
5133 H 179.67862309469803 43.780580404240396 40.25646895666404 H 0.0 **** 0.06
5134 H 181.2975046016604 44.241274782814145 40.83697398079411 H 0.0 **** 0.06
5135 H 179.8498912000153 44.73872412682482 41.74788526297317 H 0.0 **** 0.06
5136 C 68.93279757567127 121.34825137936166 197.4452996949989 C 0.0 **** -0.24
5137 H 69.36359017833716 120.3518320929047 197.5413802253545 H 0.0 **** 0.06
5138 H 69.67192590756683 122.0930306409448 197.74111095930783 H 0.0 **** 0.06
5139 H 68.0577991616858 121.428729505009 198.09059279913828 H 0.0 **** 0.06
5140 H 68.63906990251786 121.51828460474916 196.40963088318028 H 0.0 **** 0.06
5141 C 38.397553700102435 85.03020041833986 216.4081690259124 C 0.0 **** -0.24
5142 H 39.13552350711956 85.83142309202748 216.42679447760057 H 0.0 **** 0.06
5143 H 38.751775047883626 84.19581585502289 217.01263553127006 H 0.0 **** 0.06
5144 H 38.247881735985914 84.69810474517465 215.3803962304953 H 0.0 **** 0.06
5145 H 37.45318038088311 85.39657708480416 216.81229317847664 H 0.0 **** 0.06
5146 C 174.5915288454156 23.172083795067607 8.88915972933421 C 0.0 **** -0.24
5147 H 175.41144288349085 23.753327624406424 8.466914868350685 H 0.0 **** 0.06
5148 H 173.78524129475323 23.8439812247082 9.184285762661773 H 0.0 **** 0.06
5149 H 174.94632591465296 22.623312217191057 9.761397040508015 H 0.0 **** 0.06
5150 H 174.22237656160974 22.468079417739958 8.142214889421837 H 0.0 **** 0.06
5151 C 75.73858267518767 111.46071199879835 113.64100234242898 C 0.0 **** -0.24
5152 H 76.1569167172529 110.64736797680773 113.0476413423711 H 0.0 **** 0.06
5153 H 76.11979261355805 111.39973819521295 114.66092358191321 H 0.0 **** 0.06
5154 H 74.65200632785388 111.38005817065634 113.65411435625634 H 0.0 **** 0.06
5155 H 76.02651903320606 112.41652438859673 113.20202001438554 H 0.0 **** 0.06
5156 C 195.9645552736257 6.715566520298353 46.25088031785229 C 0.0 **** -0.24
5157 H 196.25737891621253 5.937893985777734 46.95581710161407 H 0.0 **** 0.06
5158 H 196.3787453735802 6.490074426433253 45.26805122914304 H 0.0 **** 0.06
5159 H 196.34576123686128 7.678871696300845 46.5932417183364 H 0.0 **** 0.06
5160 H 194.87729782259925 6.757247166889286 46.18773689917934 H 0.0 **** 0.06
5161 C 89.20301211330809 147.94161921389383 86.26967834285013 C 0.0 **** -0.24
5162 H 89.02898954605075 147.72881875821935 87.32438884662416 H 0.0 **** 0.06
5163 H 88.37274055263464 147.55378120835633 85.679143026027 H 0.0 **** 0.06
5164 H 90.13009818400559 147.4631390602434 85.9514624983323 H 0.0 **** 0.06
5165 H 89.28204697539883 149.0184608332301 86.12441054067303 H 0.0 **** 0.06
5166 C 41.67677899787628 82.49616487325534 184.3554442148503 C 0.0 **** -0.24
5167 H 40.98603057610623 81.79927976478729 184.83037463514816 H 0.0 **** 0.06
5168 H 41.375856089756496 83.51907176065919 184.58425212362044 H 0.0 **** 0.06
5169 H 41.66123427216348 82.34465753515411 183.27593783139827 H 0.0 **** 0.06
5170 H 42.68466387193115 82.32053847172836 184.7317746385031 H 0.0 **** 0.06
5171 C 91.50717226569934 127.0163009266809 156.60234742129234 C 0.0 **** -0.24
5172 H 91.62307007820188 127.81718870293922 157.33306392951033 H 0.0 **** 0.06
5173 H 92.42063930184965 126.92820455438611 156.01436261159148 H 0.0 **** 0.06
5174 H 90.67078875858478 127.24406637259416 155.94243860421597 H 0.0 **** 0.06
5175 H 91.31637559898222 126.07671728847474 157.1210345698384 H 0.0 **** 0.06
5176 C 161.89640744027534 144.1723879001799 107.41363452466858 C 0.0 **** -0.24
5177 H 160.93175918203983 143.957035123889 107.87323006110545 H 0.0 **** 0.06
5178 H 161.7419775696658 144.740779351333 106.49613099845261 H 0.0 **** 0.06
5179 H 162.4049415372071 143.2371049710656 107.18136735527138 H 0.0 **** 0.06
5180 H 162.50579061635193 144.75517782626224 108.10440524230374 H 0.0 **** 0.06
5181 C 137.06080258178628 14.75094396557921 115.93685536390585 C 0.0 **** -0.24
5182 H 136.53816715251168 14.484868060650683 116.85518806156468 H 0.0 **** 0.06
5183 H 137.31783230986525 13.844347399668152 115.38929850192882 H 0.0 **** 0.06
5184 H 137.97171065684006 15.298228726269656 116.18222657155893 H 0.0 **** 0.06
5185 H 136.41596422748881 15.377573122606009 115.32021483359522 H 0.0 **** 0.06
5186 C 97.27276039749258 40.194311638427635 158.33532264176495 C 0.0 **** -0.24
5187 H 96.44847586855535 40.00485677511031 159.02330157757171 H 0.0 **** 0.06
5188 H 97.27777898570609 41.24769331481228 158.05641049987315 H 0.0 **** 0.06
5189 H 97.14931611530325 39.58203455923896 157.44209063261678 H 0.0 **** 0.06
5190 H 98.21592726105108 39.941865789828356 158.82095677888807 H 0.0 **** 0.06
5191 C 6.619767962587986 190.50752773275264 186.54170911635072 C 0.0 **** -0.24
5192 H 7.216965915760056 191.05986799181474 185.815995685031 H 0.0 **** 0.06
5193 H 5.6789444460908385 190.20599607899072 186.08200388761654 H 0.0 **** 0.06
5194 H 6.416066545986666 191.1430778687266 187.4033075660743 H 0.0 **** 0.06
5195 H 7.169168914252737 189.62248758691956 186.8635393224651 H 0.0 **** 0.06
5196 C 122.96120778081921 131.62183914969052 133.25982854189448 C 0.0 **** -0.24
5197 H 123.61785985844314 131.8950746919843 134.08593478651892 H 0.0 **** 0.06
5198 H 122.27696553812915 132.44422307730252 133.05188537779816 H 0.0 **** 0.06
5199 H 122.39079381808834 130.7322076965953 133.52826463955108 H 0.0 **** 0.06
5200 H 123.56038741545142 131.41372761364863 132.37289928576683 H 0.0 **** 0.06
5201 C 156.20305041594685 120.23026900366871 99.91964584858573 C 0.0 **** -0.24
5202 H 156.34836172755195 119.48219033851025 99.14050461302122 H 0.0 **** 0.06
5203 H 156.40916694285391 119.78527031709099 100.89272460740614 H 0.0 **** 0.06
5204 H 155.17342332126628 120.58665418274465 99.89279845319749 H 0.0 **** 0.06
5205 H 156.8820746047606 121.06678373827789 99.75048495114783 H 0.0 **** 0.06
5206 C 204.7627296491301 89.51188516671925 122.0664921331598 C 0.0 **** -0.24
5207 H 205.533765152567 89.95089550522641 121.43403320405919 H 0.0 **** 0.06
5208 H 205.09580805634118 88.5344768475515 122.41769850347929 H 0.0 **** 0.06
5209 H 203.84300384393526 89.3973147972041 121.49243097070327 H 0.0 **** 0.06
5210 H 204.5792858031935 90.16153051422913 122.92154850126518 H 0.0 **** 0.06
5211 C 126.8176136217816 32.82267323365019 134.9599139009215 C 0.0 **** -0.24
5212 H 127.33245728715535 33.57202942042858 134.35890771358538 H 0.0 **** 0.06
5213 H 126.67153762635552 31.919903902241586 134.36591769516855 H 0.0 **** 0.06
5214 H 125.85002710063499 33.212420028023246 135.27427019151082 H 0.0 **** 0.06
5215 H 127.41835273421013 32.58725724251934 135.83844561177773 H 0.0 **** 0.06
5216 C 193.30329167535976 61.69536651566338 176.82983467665946 C 0.0 **** -0.24
5217 H 193.57431670527774 61.44358408543758 175.804877523649 H 0.0 **** 0.06
5218 H 192.76721182444126 60.86085662273541 177.2803984863075 H 0.0 **** 0.06
5219 H 192.6655915559772 62.57943008288653 176.82928179980865 H 0.0 **** 0.06
5220 H 194.207102658992 61.90112229339887 177.40411371839016 H 0.0 **** 0.06
5221 C 93.57845913310108 149.55513377903173 180.0654303070209 C 0.0 **** -0.24
5222 H 94.09152635329939 149.6626371921318 179.11009467515072 H 0.0 **** 0.06
5223 H 94.29340594621335 149.68520129424383 180.87766649640312 H 0.0 **** 0.06
5224 H 93.13301038416658 148.5614371997384 180.12902030245726 H 0.0 **** 0.06
5225 H 92.79548889733455 150.30957809438326 180.1448439641049 H 0.0 **** 0.06
5226 C 167.3743621971169 120.18483802866967 67.52596506757953 C 0.0 **** -0.24
5227 H 168.18509263537794 120.91015790484249 67.59293047811518 H 0.0 **** 0.06
5228 H 166.41794966710683 120.6994451185409 67.63096408652189 H 0.0 **** 0.06
5229 H 167.4793458223117 119.44748094741078 68.32211650908624 H 0.0 **** 0.06
5230 H 167.4132733522749 119.6838929088301 66.55932085974779 H 0.0 **** 0.06
5231 C 52.099741312237526 149.13508274902102 164.2853202465526 C 0.0 **** -0.24
5232 H 51.99134467876763 149.04844337271993 163.20396464676836 H 0.0 **** 0.06
5233 H 53.08634797514512 149.5358162651579 164.52026938294938 H 0.0 **** 0.06
5234 H 51.99020522222952 148.15069061364187 164.74123703581586 H 0.0 **** 0.06
5235 H 51.33308753556135 149.80457033010538 164.67529781170663 H 0.0 **** 0.06
5236 C 18.974433093885096 16.274937924216587 131.12031056685214 C 0.0 **** -0.24
5237 H 19.771640654547127 17.01089682964765 131.0048862539668 H 0.0 **** 0.06
5238 H 19.36535449640877 15.27981263360013 130.90628191634272 H 0.0 **** 0.06
5239 H 18.16574264088365 16.504556905694727 130.4273690178058 H 0.0 **** 0.06
5240 H 18.59727612720758 16.30643083362014 132.14260649251645 H 0.0 **** 0.06
5241 C 85.06938057640768 39.21106085702725 24.790748631385057 C 0.0 **** -0.24
5242 H 85.64934897483151 38.657915719229976 25.529114556994372 H 0.0 **** 0.06
5243 H 85.65620054586445 40.05505157430929 24.426648166334445 H 0.0 **** 0.06
5244 H 84.1514567476426 39.577790434000505 25.251220580238325 H 0.0 **** 0.06
5245 H 84.82030909872081 38.55466134462036 23.958150179472995 H 0.0 **** 0.06
5246 C 176.67928895778232 185.1014371122399 88.25772156733682 C 0.0 **** -0.24
5247 H 177.02095994446626 186.03196887374406 88.71227380166745 H 0.0 **** 0.06
5248 H 176.9336983228582 184.26476187996155 88.90818337485318 H 0.0 **** 0.06
5249 H 177.16359012459174 184.97107902596156 87.29085794903251 H 0.0 **** 0.06
5250 H 175.59818120754647 185.1402748957858 88.12130745767105 H 0.0 **** 0.06
5251 C 145.1481792843847 156.79190646637386 122.27287293182424 C 0.0 **** -0.24
5252 H 145.5722122960736 155.85828684635823 122.64292232256624 H 0.0 **** 0.06
5253 H 145.80006980632714 157.20735985586077 121.50470149421427 H 0.0 **** 0.06
5254 H 145.0580417487776 157.4998874475084 123.09644823731698 H 0.0 **** 0.06
5255 H 144.16290299616406 156.59944533504353 121.8490740717201 H 0.0 **** 0.06
5256 C 197.77286475017712 157.307964613386 130.46223957446034 C 0.0 **** -0.24
5257 H 198.66128439573737 156.99325012749404 131.00984386968895 H 0.0 **** 0.06
5258 H 198.05679212233358 158.02322259966945 129.69045178430298 H 0.0 **** 0.06
5259 H 197.06891064458398 157.77589098616716 131.15066580086892 H 0.0 **** 0.06
5260 H 197.30491107098214 156.43882207534028 129.99859233718848 H 0.0 **** 0.06
5261 C 186.23876284450424 83.9093547397593 213.47954401069168 C 0.0 **** -0.24
5262 H 185.3712577091345 83.78717449853906 212.83100105498204 H 0.0 **** 0.06
5263 H 186.3858827666012 83.0009861547486 214.06443065950464 H 0.0 **** 0.06
5264 H 186.0746690579908 84.75150110003858 214.15167262206424 H 0.0 **** 0.06
5265 H 187.12324184429028 84.09775720571082 212.87107170621587 H 0.0 **** 0.06
5266 C 30.352727117885678 157.0715832016396 172.50460097422746 C 0.0 **** -0.24
5267 H 31.195912595135326 157.29011912103374 171.84936785642623 H 0.0 **** 0.06
5268 H 29.642143327906652 157.89693402546675 172.46790191239063 H 0.0 **** 0.06
5269 H 30.71134224339646 156.94497529918 173.5261173803214 H 0.0 **** 0.06
5270 H 29.864567271993465 156.1545957354275 172.17426161612775 H 0.0 **** 0.06
5271 C 100.93747954623747 159.7681335983019 118.33426528726356 C 0.0 **** -0.24
5272 H 101.26697006231869 158.76280666835922 118.07055538596403 H 0.0 **** 0.06
5273 H 100.35164411476588 159.7286138170744 119.2532060849634 H 0.0 **** 0.06
5274 H 100.32533921640355 160.17299794583943 117.52896087455012 H 0.0 **** 0.06
5275 H 101.80814459854317 160.4063137495187 118.4857532437431 H 0.0 **** 0.06
5276 C 71.91756258827145 157.23178187249493 119.85779064500588 C 0.0 **** -0.24
5277 H 70.95836229564826 157.34538535031322 120.36186025071777 H 0.0 **** 0.06
5278 H 72.34737334589492 158.21602713919282 119.66813272387373 H 0.0 **** 0.06
5279 H 71.77125747585812 156.71133000889085 118.91125971048723 H 0.0 **** 0.06
5280 H 72.5932989304017 156.65599853225604 120.4887288717265 H 0.0 **** 0.06
5281 C 164.3810074807813 48.22739263931953 157.7719983985536 C 0.0 **** -0.24
5282 H 164.12127547339196 47.288558419144636 157.28347949597742 H 0.0 **** 0.06
5283 H 163.72216589403098 49.01888737231887 157.41239025410658 H 0.0 **** 0.06
5284 H 165.4155661083852 48.48343599781056 157.54252206313828 H 0.0 **** 0.06
5285 H 164.2642424614205 48.11948672315624 158.85047064431512 H 0.0 **** 0.06
5286 C 67.11260622743094 109.01354248486673 197.01281297679333 C 0.0 **** -0.24
5287 H 67.2605512291826 109.5901575924329 197.92572065299183 H 0.0 **** 0.06
5288 H 66.08141818517169 109.12257596436517 196.67738481381036 H 0.0 **** 0.06
5289 H 67.32145790128988 107.96210846390265 197.21115011597274 H 0.0 **** 0.06
5290 H 67.78778857996394 109.37874428169185 196.23983073115033 H 0.0 **** 0.06
5291 C 86.55944867271948 45.94170001196669 46.23547665542118 C 0.0 **** -0.24
5292 H 86.34139965649017 44.976897163724075 45.77969250282365 H 0.0 **** 0.06
5293 H 87.56483419951927 45.92577046437178 46.65683675922382 H 0.0 **** 0.06
5294 H 85.83665521547094 46.14117981006382 47.026825864661035 H 0.0 **** 0.06
5295 H 86.49421696384938 46.72415483614036 45.478835112741095 H 0.0 **** 0.06
5296 C 164.59194158479858 155.1568606005905 127.71762220921107 C 0.0 **** -0.24
5297 H 163.8982609605992 155.82013426383412 128.23428493796735 H 0.0 **** 0.06
5298 H 164.44314386822583 155.2438538217138 126.64116154480405 H 0.0 **** 0.06
5299 H 164.40866506922805 154.1281765716617 128.0276561117646 H 0.0 **** 0.06
5300 H 165.61558602592095 155.43454106020948 127.96744563622684 H 0.0 **** 0.06
5301 C 133.95585285996293 207.41333261919118 21.53791968941937 C 0.0 **** -0.24
5302 H 133.0306851387229 207.84068747623132 21.925758142099937 H 0.0 **** 0.06
5303 H 134.62441077425137 208.21670188549416 21.227006052313754 H 0.0 **** 0.06
5304 H 133.73043422580503 206.77618747900848 20.681808906087667 H 0.0 **** 0.06
5305 H 134.43595217256927 206.8195267506076 22.315613314079883 H 0.0 **** 0.06
5306 C 141.67536652090752 191.46743377762937 181.3664733741112 C 0.0 **** -0.24
5307 H 140.79562032130946 191.8014939886661 181.9158835346189 H 0.0 **** 0.06
5308 H 141.97734817886573 192.2402329834409 180.65988113291087 H 0.0 **** 0.06
5309 H 141.436925277434 190.55174531528408 180.82325556386766 H 0.0 **** 0.06
5310 H 142.48817290295142 191.27367880337704 182.0649323184794 H 0.0 **** 0.06
5311 C 32.45462297437234 172.4527301507228 80.21833610221876 C 0.0 **** -0.24
5312 H 33.32240253527226 173.10844800751406 80.29397255662025 H 0.0 **** 0.06
5313 H 32.3981328536388 171.82246930887436 81.10628840235444 H 0.0 **** 0.06
5314 H 32.549020556072435 171.82553048169996 79.33176641421346 H 0.0 **** 0.06
5315 H 31.549825083561416 173.05591953556396 80.14165830818416 H 0.0 **** 0.06
5316 C 126.98320723292751 76.12944082566703 57.80243902901725 C 0.0 **** -0.24
5317 H 126.88253056290638 75.11315967480125 57.42059222925957 H 0.0 **** 0.06
5318 H 126.15344056778419 76.73704328564973 57.439500065830146 H 0.0 **** 0.06
5319 H 127.92483429493272 76.55596188819989 57.45624919451524 H 0.0 **** 0.06
5320 H 126.97052033800092 76.11139691255674 58.89211081108584 H 0.0 **** 0.06
5321 C 17.395209315262846 122.74357226965695 197.08615403967445 C 0.0 **** -0.24
5322 H 17.527038341498667 123.75204426797485 197.48012294529573 H 0.0 **** 0.06
5323 H 18.14797036128479 122.0833361154999 197.51884352816217 H 0.0 **** 0.06
5324 H 17.505935336594675 122.75959924484546 196.00210560268704 H 0.0 **** 0.06
5325 H 16.40178930847965 122.37950893061905 197.34508199156218 H 0.0 **** 0.06
5326 C 176.81400122489185 88.96308398046394 120.9052096500724 C 0.0 **** -0.24
5327 H 176.75705502191323 88.43994108622292 119.95023541361327 H 0.0 **** 0.06
5328 H 177.66795930971227 88.59253088956388 121.47169011916749 H 0.0 **** 0.06
5329 H 175.89883153454366 88.78681484220846 121.47052970717631 H 0.0 **** 0.06
5330 H 176.9305322736384 90.03195713924761 120.72730570050074 H 0.0 **** 0.06
5331 C 85.3915555877711 210.06580227218365 146.04537081995846 C 0.0 **** -0.24
5332 H 85.6116167918593 209.36531065912632 146.8511044650765 H 0.0 **** 0.06
5333 H 85.3434619890209 209.5261719327089 145.09841185809483 H 0.0 **** 0.06
5334 H 86.17718588186035 210.8198165418685 145.99484694227345 H 0.0 **** 0.06
5335 H 84.43385210088495 210.55022910271222 146.23564907199864 H 0.0 **** 0.06
5336 C 144.90387873903546 201.55590652186953 74.73485655120042 C 0.0 **** -0.24
5337 H 145.4652577395297 202.41495899535784 75.10388178408665 H 0.0 **** 0.06
5338 H 145.13144878840495 201.3995884851588 73.67993584457035 H 0.0 **** 0.06
5339 H 143.83655009818688 201.7415774511622 74.85306825633462 H 0.0 **** 0.06
5340 H 145.1837711945082 200.66834318560706 75.30249259465178 H 0.0 **** 0.06
5341 C 127.29080739840053 58.278852952468796 160.9402549768998 C 0.0 **** -0.24
5342 H 128.13141997073694 57.77718286025778 160.45998029183926 H 0.0 **** 0.06
5343 H 127.16234450270342 59.269858387768025 160.50385760736256 H 0.0 **** 0.06
5344 H 127.48629725050797 58.373933230252064 162.00787737163094 H 0.0 **** 0.06
5345 H 126.38364395029915 57.693687247004476 160.78725261214 H 0.0 **** 0.06
5346 C 205.51485814028956 195.79928982348343 132.24119411401693 C 0.0 **** -0.24
5347 H 206.19361411883366 195.57249556079117 131.41888466821462 H 0.0 **** 0.06
5348 H 204.73723622781887 196.47933500614946 131.89368606471203 H 0.0 **** 0.06
5349 H 206.07103064420096 196.26709177503776 133.05279043949832 H 0.0 **** 0.06
5350 H 205.05805400693234 194.87612776928734 132.59886848326533 H 0.0 **** 0.06
5351 C 16.693070084813513 153.06974813627613 155.1120772042015 C 0.0 **** -0.24
5352 H 16.179153178868404 153.58403768938416 154.30090226579586 H 0.0 **** 0.06
5353 H 17.280568271206164 153.78979210116148 155.68406300100588 H 0.0 **** 0.06
5354 H 17.353486760958504 152.3073855020017 154.69930346707156 H 0.0 **** 0.06
5355 H 15.958425830929798 152.59859303127888 155.7662574928142 H 0.0 **** 0.06
5356 C 166.12296415014154 53.14606282074827 48.425565956440096 C 0.0 **** -0.24
5357 H 166.9366232507754 52.56260035686708 47.99490651435576 H 0.0 **** 0.06
5358 H 166.00262205927322 54.07171568394115 47.86377535958212 H 0.0 **** 0.06
5359 H 166.35365988521903 53.37853026259022 49.46512139034411 H 0.0 **** 0.06
5360 H 165.1986229351915 52.56897788243266 48.37842303217883 H 0.0 **** 0.06
5361 C 164.66353406831004 123.8770031149326 211.68872272066233 C 0.0 **** -0.24
5362 H 164.38036223578598 123.82635564258156 210.63656840122786 H 0.0 **** 0.06
5363 H 163.7712544753942 123.79070344054078 212.30915453677605 H 0.0 **** 0.06
5364 H 165.1544851857853 124.82918354036333 211.8866458198174 H 0.0 **** 0.06
5365 H 165.34782687472023 123.05990644449984 211.91928407733093 H 0.0 **** 0.06
5366 C 20.362009160332548 60.70654068781414 21.428161229090165 C 0.0 **** -0.24
5367 H 20.166413223264726 59.9962947275277 22.231918687935263 H 0.0 **** 0.06
5368 H 21.431968669309015 60.908781592807316 21.375793221964585 H 0.0 **** 0.06
5369 H 19.82543320287826 61.63418684198942 21.625422422653855 H 0.0 **** 0.06
5370 H 20.023320297380565 60.2848924575066 20.48155002665385 H 0.0 **** 0.06
5371 C 189.10160465004492 151.7418109991993 57.58379427053467 C 0.0 **** -0.24
5372 H 188.5478875666612 151.3451417856677 56.73247231418583 H 0.0 **** 0.06
5373 H 188.9184156700361 151.1167341922398 58.4582123244125 H 0.0 **** 0.06
5374 H 188.77304486323976 152.76026690505887 57.78868242390922 H 0.0 **** 0.06
5375 H 190.1674967381219 151.7434991696997 57.35430929280227 H 0.0 **** 0.06
5376 C 4.411256585115382 11.81691549204271 192.11074456865055 C 0.0 **** -0.24
5377 H 4.679283359048981 12.258961407011412 191.15047990964337 H 0.0 **** 0.06
5378 H 4.307034237287752 12.604633468302154 192.85619826348068 H 0.0 **** 0.06
5379 H 5.192430783501891 11.122251308543753 192.42078600847276 H 0.0 **** 0.06
5380 H 3.4672147088891734 11.281670903099382 192.01233577606757 H 0.0 **** 0.06
5381 C 148.8282506527638 141.95531337812025 169.7006395318735 C 0.0 **** -0.24
5382 H 148.75263563911216 141.95020071086515 170.7886112178283 H 0.0 **** 0.06
5383 H 148.61627344576834 142.95662005005744 169.32671342059336 H 0.0 **** 0.06
5384 H 148.1084226154128 141.25055524453927 169.28374660137348 H 0.0 **** 0.06
5385 H 149.83594137318295 141.66187885298666 169.4057077849672 H 0.0 **** 0.06
5386 C 42.3344755034809 118.92735365212542 146.12051160916627 C 0.0 **** -0.24
5387 H 41.786458112332625 118.0269841522503 146.3957239201095 H 0.0 **** 0.06
5388 H 42.93617090395546 118.72967837257676 145.23262631902122 H 0.0 **** 0.06
5389 H 42.985804048001825 119.22252409369099 146.94223397615588 H 0.0 **** 0.06
5390 H 41.62911045660378 119.73085563938372 145.90934618174703 H 0.0 **** 0.06
5391 C 140.75901738401666 35.848266547444325 120.10944240911068 C 0.0 **** -0.24
5392 H 141.63562348219403 36.38146830390187 120.47802724411277 H 0.0 **** 0.06
5393 H 140.72206220902143 34.85609597647135 120.56048789303729 H 0.0 **** 0.06
5394 H 140.822155595445 35.75314482467081 119.02524705413428 H 0.0 **** 0.06
5395 H 139.8593373548407 36.402493053183434 120.37344606697319 H 0.0 **** 0.06
5396 C 192.9993764311672 197.36180831807962 12.275573836327055 C 0.0 **** -0.24
5397 H 192.5408181316261 197.80495263027888 11.391439488347245 H 0.0 **** 0.06
5398 H 193.127386211251 196.29073042524516 12.119497643938885 H 0.0 **** 0.06
5399 H 192.3556085070678 197.52865824875002 13.139913537194403 H 0.0 **** 0.06
5400 H 193.970468971802 197.82332887197848 12.450799888001384 H 0.0 **** 0.06
5401 C 161.1962569156663 162.58025138333863 203.6459627953361 C 0.0 **** -0.24
5402 H 160.93769234895052 162.11260813211516 204.5957434453089 H 0.0 **** 0.06
5403 H 162.1686297048583 162.21469269024396 203.31445087499344 H 0.0 **** 0.06
5404 H 161.23802282257725 163.66132251654352 203.77328493149287 H 0.0 **** 0.06
5405 H 160.4406110600467 162.3300665860673 202.90116748900635 H 0.0 **** 0.06
5406 C 154.87327048562832 146.39122798138465 125.00430022120572 C 0.0 **** -0.24
5407 H 154.21415695764523 145.59616374732417 124.65623937759291 H 0.0 **** 0.06
5408 H 155.57148249635623 146.656751932848 124.21009170497636 H 0.0 **** 0.06
5409 H 155.42780887269043 146.04630433229607 125.87661723852422 H 0.0 **** 0.06
5410 H 154.27921756179768 147.26494876606114 125.27274435869735 H 0.0 **** 0.06
5411 C 135.16862001374471 41.89516398955385 173.61309492428282 C 0.0 **** -0.24
5412 H 134.91779094468745 42.38481334679915 172.67185827490772 H 0.0 **** 0.06
5413 H 135.5232333259445 40.88430466179557 173.41265303938582 H 0.0 **** 0.06
5414 H 134.28177975486324 41.85049074586857 174.24637433914006 H 0.0 **** 0.06
5415 H 135.9494524092604 42.46155607770845 174.1206014844043 H 0.0 **** 0.06
5416 C 103.7166937672087 198.49738481008492 74.36226314450117 C 0.0 **** -0.24
5417 H 103.16396587297508 197.5581954867298 74.37071411651145 H 0.0 **** 0.06
5418 H 104.239413888832 198.6196156888417 75.31117432684478 H 0.0 **** 0.06
5419 H 103.02274051996817 199.32595464844053 74.21978488194598 H 0.0 **** 0.06
5420 H 104.44063851427514 198.48487984946613 73.54782790669951 H 0.0 **** 0.06
5421 C 197.3330535526364 124.03328529524397 145.04471412112292 C 0.0 **** -0.24
5422 H 197.53572994440944 123.94927205134827 143.97708909832744 H 0.0 **** 0.06
5423 H 196.2802166099405 124.27068033597605 145.196368658222 H 0.0 **** 0.06
5424 H 197.95015294649863 124.82428190791457 145.470904024667 H 0.0 **** 0.06
5425 H 197.56725747442556 123.08724212141813 145.53353411320535 H 0.0 **** 0.06
5426 C 40.72871550724773 137.31748543155902 77.64214577049466 C 0.0 **** -0.24
5427 H 40.869008370970505 136.62788166761936 78.47462081535332 H 0.0 **** 0.06
5428 H 39.71958140190935 137.20411456277986 77.24447937608363 H 0.0 **** 0.06
5429 H 41.454361815590005 137.09608637866347 76.86049431039942 H 0.0 **** 0.06
5430 H 40.86959624218795 138.34039480594254 77.98969597980755 H 0.0 **** 0.06
5431 C 79.27738606225266 161.82619679063913 17.554076106928278 C 0.0 **** -0.24
5432 H 78.70495846202142 162.753224772733 17.58783852868362 H 0.0 **** 0.06
5433 H 78.60437601214905 160.99220131852002 17.353140359614542 H 0.0 **** 0.06
5434 H 79.77296549947825 161.67011554966018 18.512754791322806 H 0.0 **** 0.06
5435 H 80.0256562780677 161.88986760064927 16.765038831325 H 0.0 **** 0.06
5436 C 44.11857894824338 72.39288298329404 173.183893220102 C 0.0 **** -0.24
5437 H 45.09654302697682 72.14038128340025 172.77294394710026 H 0.0 **** 0.06
5438 H 43.887973378379485 73.43426602464473 172.9588186266507 H 0.0 **** 0.06
5439 H 44.13212196901887 72.24894981352696 174.26388208665776 H 0.0 **** 0.06
5440 H 43.36052999167316 71.74885327540068 172.73978892302023 H 0.0 **** 0.06
5441 C 185.6565346202909 173.07459568635932 40.690793768710705 C 0.0 **** -0.24
5442 H 186.4498490721834 173.10232783843728 41.43782806918563 H 0.0 **** 0.06
5443 H 185.1085720773502 174.01734729267972 40.70927669907749 H 0.0 **** 0.06
5444 H 184.9753203892609 172.25353488499513 40.91390689332292 H 0.0 **** 0.06
5445 H 186.0928278373766 172.92739477566244 39.703099864676176 H 0.0 **** 0.06
5446 C 11.609035089776256 125.67822081048524 37.70809919450221 C 0.0 **** -0.24
5447 H 10.701783161995877 125.38079044458897 37.18183855495333 H 0.0 **** 0.06
5448 H 11.517060109519647 125.41906152002014 38.76330638671064 H 0.0 **** 0.06
5449 H 11.75040323363342 126.75433683448125 37.60863822686345 H 0.0 **** 0.06
5450 H 12.46410748986132 125.157630267753 37.278291337804376 H 0.0 **** 0.06
5451 C 113.2515642351458 166.86263112962746 87.01810317291616 C 0.0 **** -0.24
5452 H 114.17428930111721 167.2862008762466 87.4160997535776 H 0.0 **** 0.06
5453 H 113.45747285976044 165.88268256959066 86.58732759630034 H 0.0 **** 0.06
5454 H 112.85235637526718 167.522684644025 86.24782946587858 H 0.0 **** 0.06
5455 H 112.52339264063046 166.7598462199577 87.82306251291944 H 0.0 **** 0.06
5456 C 121.66404893075104 195.75793347511427 64.74116447194535 C 0.0 **** -0.24
5457 H 121.85180052703164 194.70682444042498 64.52587804973444 H 0.0 **** 0.06
5458 H 122.26475191450736 196.06645441789777 65.59775125569593 H 0.0 **** 0.06
5459 H 120.60772460725205 195.89898447402783 64.96935884225263 H 0.0 **** 0.06
5460 H 121.93191120481616 196.3611015167721 63.87319945752415 H 0.0 **** 0.06
5461 C 193.34080053938192 76.2167867244889 83.02263012849654 C 0.0 **** -0.24
5462 H 193.03160167645572 76.90717276268877 83.8082377534276 H 0.0 **** 0.06
5463 H 192.4581480424935 75.75799902496219 82.57551987774873 H 0.0 **** 0.06
5464 H 193.97715370771047 75.44292494375934 83.44884331628533 H 0.0 **** 0.06
5465 H 193.89295929979593 76.76225499853466 82.2571595501362 H 0.0 **** 0.06
5466 C 27.303871737885217 11.318169528729655 204.79039779026678 C 0.0 **** -0.24
5467 H 26.666578142473924 10.660935247598374 204.19983781145442 H 0.0 **** 0.06
5468 H 28.312159250581914 10.90516136014341 204.83323115589494 H 0.0 **** 0.06
5469 H 26.90189169177745 11.402337271639567 205.80023439883377 H 0.0 **** 0.06
5470 H 27.33469581557648 12.305563708058855 204.3278053370169 H 0.0 **** 0.06
5471 C 190.90433800904083 149.85265358623803 214.88848827751065 C 0.0 **** -0.24
5472 H 190.00215769372994 149.310501388109 214.60793920274682 H 0.0 **** 0.06
5473 H 190.82322621219836 150.88805746892228 214.55630635783967 H 0.0 **** 0.06
5474 H 191.76923616643435 149.3868027211438 214.4160136339528 H 0.0 **** 0.06
5475 H 191.02318217495193 149.82555599522402 215.97152471123184 H 0.0 **** 0.06
5476 C 209.55495230918436 165.29827086597692 185.80873680197482 C 0.0 **** -0.24
5477 H 209.84588178398545 166.21232121403781 185.29131807957887 H 0.0 **** 0.06
5478 H 208.53998484967136 165.02451996890176 185.51951776724394 H 0.0 **** 0.06
5479 H 209.59373274889816 165.46359055586183 186.88602211047677 H 0.0 **** 0.06
5480 H 210.2397569943454 164.49429996724962 185.53984376406436 H 0.0 **** 0.06
5481 C 154.5689434636949 188.0659780528332 53.39646132918057 C 0.0 **** -0.24
5482 H 154.51590845605375 187.0276480546693 53.069146130773134 H 0.0 **** 0.06
5483 H 155.53087370199654 188.24669834123952 53.875707114686634 H 0.0 **** 0.06
5484 H 153.76528919482075 188.2656901388155 54.1058188198524 H 0.0 **** 0.06
5485 H 154.46398528604215 188.72481842880075 52.533432182992954 H 0.0 **** 0.06
5486 C 205.01078719570904 84.62720469729817 61.52453648586743 C 0.0 **** -0.24
5487 H 204.12916056398026 84.77039083109332 62.14971274791745 H 0.0 **** 0.06
5488 H 204.77192223201058 83.94144441178054 60.71186158724555 H 0.0 **** 0.06
5489 H 205.81819053051373 84.21207439919971 62.127392869977854 H 0.0 **** 0.06
5490 H 205.32230736739047 85.58666323817317 61.111516354226296 H 0.0 **** 0.06
5491 C 89.62892336672014 178.6704035283368 180.28367594224176 C 0.0 **** -0.24
5492 H 90.36884268031274 178.62342634744982 181.08292540081433 H 0.0 **** 0.06
5493 H 90.02559790267195 179.26193767815693 179.45772326695558 H 0.0 **** 0.06
5494 H 88.71860425150162 179.13584712474653 180.65913096336627 H 0.0 **** 0.06
5495 H 89.40587630248855 177.66229567213946 179.93493006557884 H 0.0 **** 0.06
5496 C 12.568158575138341 42.69178237753573 208.17734533027783 C 0.0 **** -0.24
5497 H 12.286368312253074 42.473269253833166 207.14666767843167 H 0.0 **** 0.06
5498 H 11.801048782895663 43.313132874246776 208.6395068431294 H 0.0 **** 0.06
5499 H 13.520969374023196 43.22154015308507 208.18858926972112 H 0.0 **** 0.06
5500 H 12.664446403103653 41.75912651206204 208.73239110501072 H 0.0 **** 0.06
5501 C 105.8446142530576 124.63199833795971 40.299559125611864 C 0.0 **** -0.24
5502 H 106.84048473893314 124.89539565702444 40.65656749052022 H 0.0 **** 0.06
5503 H 105.87227078772237 123.64102547895982 39.84552932527998 H 0.0 **** 0.06
5504 H 105.52050498638384 125.36274542358427 39.558188080606385 H 0.0 **** 0.06
5505 H 105.14790176728805 124.62995950963352 41.137320235755 H 0.0 **** 0.06
5506 C 89.27280019843063 30.55761014517705 132.49165106812785 C 0.0 **** -0.24
5507 H 89.09712465638567 29.639615344413173 133.05346937081418 H 0.0 **** 0.06
5508 H 88.4977222124969 30.675298938244424 131.73553958835998 H 0.0 **** 0.06
5509 H 90.24829070736915 30.50503921579262 132.0084081715841 H 0.0 **** 0.06
5510 H 89.24973068406858 31.409445174452898 133.1723705708095 H 0.0 **** 0.06
5511 C 169.2068265543018 111.93512060146442 16.509040258298995 C 0.0 **** -0.24
5512 H 168.40694390296608 111.25047208635446 16.793487642929392 H 0.0 **** 0.06
5513 H 170.1565508343941 111.40107391647418 16.50020552919608 H 0.0 **** 0.06
5514 H 169.25561491414942 112.7535832881732 17.22767415196907 H 0.0 **** 0.06
5515 H 169.00524971881936 112.33585710820516 15.515043181982719 H 0.0 **** 0.06
5516 C 198.36294645310667 159.40826998220408 210.1919332869167 C 0.0 **** -0.24
5517 H 198.25779543128706 158.7353259760013 209.3408394221486 H 0.0 **** 0.06
5518 H 197.83437649314462 158.9924400505192 211.05030233276887 H 0.0 **** 0.06
5519 H 197.93966870546524 160.38042006556626 209.94056644552433 H 0.0 **** 0.06
5520 H 199.4184065506859 159.5223427387633 210.4356718696763 H 0.0 **** 0.06
5521 C 135.62341108608393 65.69424261092402 75.6372719465977 C 0.0 **** -0.24
5522 H 135.70619581658434 66.78013152850356 75.57803422455987 H 0.0 **** 0.06
5523 H 136.54872598325642 65.28239209373986 76.04054063517549 H 0.0 **** 0.06
5524 H 135.44819772293846 65.2893120472173 74.64052691714312 H 0.0 **** 0.06
5525 H 134.79217912534898 65.42891144430342 76.2899678356111 H 0.0 **** 0.06
5526 C 203.17320372070705 191.8883100516889 155.30718209130254 C 0.0 **** -0.24
5527 H 202.8855679085483 192.88874815649663 154.98522190657638 H 0.0 **** 0.06
5528 H 203.1591244836456 191.83890015222585 156.3959311772182 H 0.0 **** 0.06
5529 H 204.17740767960248 191.6655164606945 154.94585319652396 H 0.0 **** 0.06
5530 H 202.47176781445523 191.15952063401002 154.90095827146234 H 0.0 **** 0.06
5531 C 158.5037682572351 112.25259326781965 152.25089921953577 C 0.0 **** -0.24
5532 H 159.58866608833262 112.24922954702676 152.3497096222099 H 0.0 **** 0.06
5533 H 158.0988265890312 113.15165191998055 152.71466414861004 H 0.0 **** 0.06
5534 H 158.09126367930605 111.37239398300811 152.74393301859197 H 0.0 **** 0.06
5535 H 158.23513818128197 112.23557482514288 151.19377603699513 H 0.0 **** 0.06
5536 C 77.0012352840037 170.18866652228667 150.7352608370614 C 0.0 **** -0.24
5537 H 77.5362994291123 169.23893564333179 150.75219490771843 H 0.0 **** 0.06
5538 H 77.44752410427803 170.84239036709207 149.98505047900403 H 0.0 **** 0.06
5539 H 77.0668264743454 170.66058431725025 151.7148650950674 H 0.0 **** 0.06
5540 H 75.95461125343134 170.0108693108302 150.4862238056778 H 0.0 **** 0.06
5541 C 173.3121968889722 191.37180965831624 92.2425358201183 C 0.0 **** -0.24
5542 H 172.86316440502122 192.29387384102324 92.6132009344931 H 0.0 **** 0.06
5543 H 172.52510509782434 190.66094457009459 91.99017797396802 H 0.0 **** 0.06
5544 H 173.95354191287527 190.94573094709563 93.01400301161782 H 0.0 **** 0.06
5545 H 173.9057504643609 191.58828504674185 91.35539791457843 H 0.0 **** 0.06
5546 C 71.90268684481636 136.8508179724538 124.98977881280074 C 0.0 **** -0.24
5547 H 72.2151753460408 135.80616978040092 124.98214708512201 H 0.0 **** 0.06
5548 H 72.77365194893504 137.49057037814043 124.84670265331543 H 0.0 **** 0.06
5549 H 71.43408544807603 137.0822784580509 125.9460993158704 H 0.0 **** 0.06
5550 H 71.18887721434426 137.02203681875966 124.18418769446605 H 0.0 **** 0.06
5551 C 105.72412580880864 12.47170193014972 80.78225948692965 C 0.0 **** -0.24
5552 H 105.29579132542158 11.814920601989144 81.53913133007244 H 0.0 **** 0.06
5553 H 105.19565557133306 12.33176082708863 79.83902789287403 H 0.0 **** 0.06
5554 H 106.77908016106763 12.230617687296316 80.64848784030532 H 0.0 **** 0.06
5555 H 105.6256900705756 13.508308540172152 81.10308227657357 H 0.0 **** 0.06
5556 C 12.414176365936385 201.55908041224103 143.42751662057725 C 0.0 **** -0.24
5557 H 12.982475263070171 200.93448856221625 144.1170458282914 H 0.0 **** 0.06
5558 H 11.76805804157172 202.23042448932875 143.9950105973282 H 0.0 **** 0.06
5559 H 11.803949506011747 200.92636772612553 142.7828004215413 H 0.0 **** 0.06
5560 H 13.100666862266792 202.14478734816822 142.8170845598471 H 0.0 **** 0.06
5561 C 0.6637274252955194 60.544079428670955 74.35391879223623 C 0.0 **** -0.24
5562 H 1.0689904305510822 61.13930501083854 75.172266848777 H 0.0 **** 0.06
5563 H -0.36828280607952024 60.272119021224796 74.57833264485653 H 0.0 **** 0.06
5564 H 1.2605388164046758 59.6398198088649 74.23321731842528 H 0.0 **** 0.06
5565 H 0.694916547902551 61.125727277530245 73.43180969884328 H 0.0 **** 0.06
5566 C 65.08297250416396 176.1203101848095 101.42787868457027 C 0.0 **** -0.24
5567 H 64.90551704591037 175.044569549889 101.43369196411068 H 0.0 **** 0.06
5568 H 64.12813386299356 176.64524996435185 101.44319285624333 H 0.0 **** 0.06
5569 H 65.63282779467845 176.39121892911024 100.52626803832298 H 0.0 **** 0.06
5570 H 65.66490720670573 176.39770467099902 102.30677824478893 H 0.0 **** 0.06
5571 C 74.12954544469619 184.94297677596143 198.11422049944565 C 0.0 **** -0.24
5572 H 74.42895876029621 185.22511461866378 197.10555255785712 H 0.0 **** 0.06
5573 H 74.86958782880134 184.26334054425288 198.5362465551317 H 0.0 **** 0.06
5574 H 73.15865072168515 184.4479067105517 198.0802320145207 H 0.0 **** 0.06
5575 H 74.05969368329761 185.836042527276 198.73514515676408 H 0.0 **** 0.06
5576 C 132.45448947605337 131.53085352848598 112.05455970540073 C 0.0 **** -0.24
5577 H 133.0855931930269 132.41800136840965 112.0205168245209 H 0.0 **** 0.06
5578 H 132.60731691836213 131.01181955145 113.00036128422305 H 0.0 **** 0.06
5579 H 132.71524333151422 130.868347056625 111.22960714477891 H 0.0 **** 0.06
5580 H 131.40849248338236 131.8261220261433 111.96616875967716 H 0.0 **** 0.06
5581 C 144.7564471298241 5.842520523389453 131.82368973535364 C 0.0 **** -0.24
5582 H 144.03096219055152 5.995892684003309 132.62216247011912 H 0.0 **** 0.06
5583 H 144.32053160083933 6.15132615322824 130.8732251739528 H 0.0 **** 0.06
5584 H 145.02566133691096 4.787084137691636 131.77498763240663 H 0.0 **** 0.06
5585 H 145.64863339099446 6.435779118634514 132.02438366493607 H 0.0 **** 0.06
5586 C 120.5750310946084 78.14066053242038 149.85085461865123 C 0.0 **** -0.24
5587 H 119.56130844080975 77.76078770060121 149.98347880050034 H 0.0 **** 0.06
5588 H 121.16805620680425 77.40872078379562 149.30293989056076 H 0.0 **** 0.06
5589 H 121.02581275691337 78.31800955936131 150.82696595511698 H 0.0 **** 0.06
5590 H 120.54195271967002 79.0749389633587 149.29005182132676 H 0.0 **** 0.06
5591 C 127.95668619582818 79.26613809444387 209.0617997650094 C 0.0 **** -0.24
5592 H 127.1137302747515 78.57542647983388 209.03873640241957 H 0.0 **** 0.06
5593 H 127.71438819889784 80.11254985399603 209.70402164381252 H 0.0 **** 0.06
5594 H 128.16208827081783 79.62122394859927 208.05248804828923 H 0.0 **** 0.06
5595 H 128.8348782789211 78.75249814282961 209.4522697279867 H 0.0 **** 0.06
5596 C 135.68999803580073 19.982915023922715 59.38166280863294 C 0.0 **** -0.24
5597 H 136.63408292561957 20.43529451641183 59.68502834734255 H 0.0 **** 0.06
5598 H 135.56554594922278 19.02690615609771 59.89034430138503 H 0.0 **** 0.06
5599 H 135.69341509016317 19.82470795340356 58.30360345551614 H 0.0 **** 0.06
5600 H 134.86749753763678 20.647293068677357 59.648788061027375 H 0.0 **** 0.06
5601 C 71.91983151172944 114.63072844496934 25.21985616425974 C 0.0 **** -0.24
5602 H 72.237828129303 114.49451037667019 24.18670568714475 H 0.0 **** 0.06
5603 H 70.88401137106409 114.3072834265049 25.32712269621277 H 0.0 **** 0.06
5604 H 72.00087625664317 115.68385357405349 25.488906990742265 H 0.0 **** 0.06
5605 H 72.55598912932864 114.03825992135371 25.877481188246662 H 0.0 **** 0.06
5606 C 15.840050120607998 149.45309248896342 14.532015688275393 C 0.0 **** -0.24
5607 H 16.265873814389238 149.36591336785318 13.532599802129084 H 0.0 **** 0.06
5608 H 15.31329916769073 148.53148775674168 14.783497936303093 H 0.0 **** 0.06
5609 H 15.141155350260732 150.2894889181635 14.558326524028672 H 0.0 **** 0.06
5610 H 16.638350830673744 149.62465194554954 15.253648874267256 H 0.0 **** 0.06
5611 C 86.33883631706954 163.68010969899228 106.51321290859336 C 0.0 **** -0.24
5612 H 86.1864196939282 163.3196837465175 105.49585287232584 H 0.0 **** 0.06
5613 H 87.13951076579258 163.1087519193856 106.98384744532105 H 0.0 **** 0.06
5614 H 85.41937339338267 163.55622862197987 107.08414068327663 H 0.0 **** 0.06
5615 H 86.61162927797841 164.73521406458752 106.48673802913085 H 0.0 **** 0.06
5616 C 54.58733808940252 148.6116575308663 154.36428435609275 C 0.0 **** -0.24
5617 H 55.587947029501095 149.03854525231657 154.28499509671275 H 0.0 **** 0.06
5618 H 54.06011357081792 149.07619997649704 155.19745646144474 H 0.0 **** 0.06
5619 H 54.662515200739165 147.5377037367054 154.53423076923224 H 0.0 **** 0.06
5620 H 54.04111683941977 148.79581017910283 153.4395226171098 H 0.0 **** 0.06
5621 C 184.94366251983666 57.649239689108924 12.184957925659077 C 0.0 **** -0.24
5622 H 185.22451845342917 58.51465828906058 11.586091746602122 H 0.0 **** 0.06
5623 H 185.8433835194434 57.15008546867659 12.544898650746973 H 0.0 **** 0.06
5624 H 184.36396805387807 56.95753460563688 11.574154740109506 H 0.0 **** 0.06
5625 H 184.34371834486768 57.97452578422252 13.034377177607055 H 0.0 **** 0.06
5626 C 123.23473536380307 185.29236040932935 148.80546582071474 C 0.0 **** -0.24
5627 H 123.37311713934368 185.09388502138845 147.74322191231602 H 0.0 **** 0.06
5628 H 122.16931585992963 185.3103169879434 149.03668215289082 H 0.0 **** 0.06
5629 H 123.6765308641642 186.25695671831528 149.05562543979823 H 0.0 **** 0.06
5630 H 123.71946478735028 184.50899157908256 149.3874450173352 H 0.0 **** 0.06
5631 C 121.5071100227551 12.730802533939752 13.063200303293883 C 0.0 **** -0.24
5632 H 120.70785141369971 13.186308490642759 12.478679017460877 H 0.0 **** 0.06
5633 H 122.40391069522398 12.647295115051449 12.44864256383238 H 0.0 **** 0.06
5634 H 121.19643094014971 11.738888168095244 13.39010322650293 H 0.0 **** 0.06
5635 H 121.71845285370425 13.350694390708767 13.934042089572529 H 0.0 **** 0.06
5636 C 181.21346480330706 109.66964106029174 5.60071777120848 C 0.0 **** -0.24
5637 H 181.61263418012402 110.59447987953943 5.184742895967247 H 0.0 **** 0.06
5638 H 181.65545942369602 108.81753051572927 5.082387233600855 H 0.0 **** 0.06
5639 H 180.1313041528257 109.65116421043525 5.473989484848943 H 0.0 **** 0.06
5640 H 181.45603280174333 109.61485321184118 6.662244598117979 H 0.0 **** 0.06
5641 C 39.34242131469148 99.77398903586943 34.7117324033666 C 0.0 **** -0.24
5642 H 39.80711606840913 98.80177606003765 34.87546037746618 H 0.0 **** 0.06
5643 H 39.031253843344075 100.19290684037206 35.66879865903462 H 0.0 **** 0.06
5644 H 38.47234654643751 99.65595908457338 34.06616911575887 H 0.0 **** 0.06
5645 H 40.05917327455853 100.44331991098535 34.237492042857156 H 0.0 **** 0.06
5646 C 155.95532925740542 14.915890086165177 2.4489522877463656 C 0.0 **** -0.24
5647 H 156.69418014461843 14.60821641048473 1.708221275973294 H 0.0 **** 0.06
5648 H 155.2655411989487 14.093473759371008 2.6367951625740176 H 0.0 **** 0.06
5649 H 155.4021335682928 15.776793768734876 2.073759653271921 H 0.0 **** 0.06
5650 H 156.46211234780998 15.185514129318577 3.3756970832721507 H 0.0 **** 0.06
5651 C 144.57360161951704 70.09199064354395 40.13289425497949 C 0.0 **** -0.24
5652 H 144.61036570618126 69.00365377084213 40.183966711179366 H 0.0 **** 0.06
5653 H 144.8375349749241 70.51027756337619 41.103967560597056 H 0.0 **** 0.06
5654 H 143.5673826676537 70.40919104733287 39.8617090110572 H 0.0 **** 0.06
5655 H 145.2801795741642 70.44412532528843 39.38076201194323 H 0.0 **** 0.06
5656 C 53.126223014889305 208.9324603802422 166.35875448270252 C 0.0 **** -0.24
5657 H 53.92222169892982 209.4542781446354 165.8293015379923 H 0.0 **** 0.06
5658 H 53.15971797017866 207.87174075386832 166.11193049064718 H 0.0 **** 0.06
5659 H 52.16154012518528 209.34426469716158 166.0608530262544 H 0.0 **** 0.06
5660 H 53.259656767975514 209.06126589490214 167.43289865874428 H 0.0 **** 0.06
5661 C 216.39469968541644 198.61802525716726 157.7875487163634 C 0.0 **** -0.24
5662 H 215.76312052044892 199.39715033567182 157.35855333334064 H 0.0 **** 0.06
5663 H 216.53030421466474 197.81930783461945 157.05778776881982 H 0.0 **** 0.06
5664 H 215.91840445836615 198.21626092938143 158.6817032963288 H 0.0 **** 0.06
5665 H 217.36382557341182 199.04007733570438 158.0502446680727 H 0.0 **** 0.06
5666 C 88.29504233269336 116.46058873556164 111.09366525551296 C 0.0 **** -0.24
5667 H 89.00191492882885 115.9895654507756 110.41034590067652 H 0.0 **** 0.06
5668 H 87.82514744436384 115.6969005547427 111.71300787849931 H 0.0 **** 0.06
5669 H 87.53037651971755 116.98477106486239 110.51993689995332 H 0.0 **** 0.06
5670 H 88.82272078064705 117.17088666257068 111.72965380575535 H 0.0 **** 0.06
5671 C 138.11994940551176 59.688493498070386 39.24204403117767 C 0.0 **** -0.24
5672 H 138.08688440735307 60.22130220483865 38.29115616051307 H 0.0 **** 0.06
5673 H 137.37848124764366 60.112510544144186 39.92052813765136 H 0.0 **** 0.06
5674 H 139.112730311426 59.78807486622674 39.680333607359245 H 0.0 **** 0.06
5675 H 137.89938467479067 58.63479437512632 39.07501866504744 H 0.0 **** 0.06
5676 C 68.99474778965134 59.31723309685617 138.16724110561586 C 0.0 **** -0.24
5677 H 69.83808211825294 59.05644988010789 138.8068984087597 H 0.0 **** 0.06
5678 H 68.76578196480136 58.479018563277094 137.50873811186779 H 0.0 **** 0.06
5679 H 69.25142888561032 60.190740212924396 137.56783784302854 H 0.0 **** 0.06
5680 H 68.12611434009375 59.54236162477008 138.78566669155305 H 0.0 **** 0.06
5681 C 110.79855430227462 31.73700594369069 91.58443439618043 C 0.0 **** -0.24
5682 H 110.37018546165586 32.20334006341119 90.69634555581308 H 0.0 **** 0.06
5683 H 109.99506682906389 31.40707257586996 92.24325530999067 H 0.0 **** 0.06
5684 H 111.42512290911515 32.46000281526102 92.10752660167145 H 0.0 **** 0.06
5685 H 111.40274610550046 30.87975615942051 91.28856415752023 H 0.0 **** 0.06
5686 C 91.05365240728516 10.727473621804222 143.94396903547158 C 0.0 **** -0.24
5687 H 90.05170008473904 10.999349984440073 144.27562083876222 H 0.0 **** 0.06
5688 H 91.22283384159566 11.1176663042462 142.9403648060201 H 0.0 **** 0.06
5689 H 91.15174418389255 9.641738916399504 143.93400425061373 H 0.0 **** 0.06
5690 H 91.7896734054387 11.152621891550808 144.62788658282517 H 0.0 **** 0.06
5691 C 66.63848219707924 211.59367426574104 31.7165415401343 C 0.0 **** -0.24
5692 H 67.00504348334691 211.30163390168866 32.700978128823834 H 0.0 **** 0.06
5693 H 67.48050698779396 211.6949591342521 31.0318797531187 H 0.0 **** 0.06
5694 H 66.11442091817254 212.546235283278 31.792701999536703 H 0.0 **** 0.06
5695 H 65.95531942530619 210.83178983448116 31.342640673162308 H 0.0 **** 0.06
5696 C 0.04872984217515608 24.00285656476467 201.6547094057571 C 0.0 **** -0.24
5697 H 1.117768193303398 24.022735676318007 201.44305884411503 H 0.0 **** 0.06
5698 H -0.3113549773830542 22.975732585224478 201.60750380013485 H 0.0 **** 0.06
5699 H -0.4786211599790917 24.60794812884035 200.91758848796073 H 0.0 **** 0.06
5700 H -0.13085203990588923 24.405672682361512 202.65137768334603 H 0.0 **** 0.06
5701 C 185.30449050475818 111.4528461819426 211.94306866788042 C 0.0 **** -0.24
5702 H 184.56872118140512 110.91081520637117 211.34884811662783 H 0.0 **** 0.06
5703 H 184.960987277502 111.5162679922778 212.97664661885798 H 0.0 **** 0.06
5704 H 185.4287401770697 112.45686492201285 211.53895667465093 H 0.0 **** 0.06
5705 H 186.25811296474893 110.92556683839963 211.90856007563133 H 0.0 **** 0.06
5706 C 199.81394031512204 208.71317989282758 144.20452567856694 C 0.0 **** -0.24
5707 H 200.218099363098 207.8530921099376 144.73752248034668 H 0.0 **** 0.06
5708 H 200.4580910826473 208.95024998460858 143.35651876037178 H 0.0 **** 0.06
5709 H 199.76878969629453 209.56972543531907 144.87688368316958 H 0.0 **** 0.06
5710 H 198.81144193162407 208.48023711307172 143.8448928136113 H 0.0 **** 0.06
5711 C 115.73867828891663 159.5685978004408 52.97563862729902 C 0.0 **** -0.24
5712 H 116.37059045151786 158.68614997692958 53.0766534597652 H 0.0 **** 0.06
5713 H 116.07992690945976 160.339661776934 53.66679336371334 H 0.0 **** 0.06
5714 H 114.706084414742 159.30390323480748 53.20734500783669 H 0.0 **** 0.06
5715 H 115.79781820822221 159.9436387905489 51.9545623130976 H 0.0 **** 0.06
5716 C 15.464390974491437 75.8495512475098 166.89817949855455 C 0.0 **** -0.24
5717 H 15.271052812823243 76.62386753666942 167.63996839095213 H 0.0 **** 0.06
5718 H 15.20706227445217 74.87550638658348 167.3154176824301 H 0.0 **** 0.06
5719 H 16.52044721440579 75.86163899405051 166.62794025873933 H 0.0 **** 0.06
5720 H 14.85905980772553 76.03723264240335 166.01162662300786 H 0.0 **** 0.06
5721 C 18.78551748952391 135.18490207619055 58.78655324402453 C 0.0 **** -0.24
5722 H 18.02644254403718 135.873187709915 58.41445210845038 H 0.0 **** 0.06
5723 H 18.37509253772906 134.603026679739 59.61224418518516 H 0.0 **** 0.06
5724 H 19.64902534104256 135.75103367740695 59.13511647991227 H 0.0 **** 0.06
5725 H 19.090915075837955 134.5131419070354 57.98458895626314 H 0.0 **** 0.06
5726 C 61.149751031247064 5.2896543903020685 32.492030863146084 C 0.0 **** -0.24
5727 H 60.06871665306585 5.417966216056151 32.42920649513049 H 0.0 **** 0.06
5728 H 61.550101893557226 5.9547341668429254 33.25766147016421 H 0.0 **** 0.06
5729 H 61.599576643759875 5.531696833746196 31.528672920563608 H 0.0 **** 0.06
5730 H 61.377605334529406 4.256518740797993 32.75094060160377 H 0.0 **** 0.06
5731 C 83.85577087794013 195.8710874938676 138.83998742507646 C 0.0 **** -0.24
5732 H 83.33698041400652 196.65757535068389 139.3874583657613 H 0.0 **** 0.06
5733 H 83.56564272543892 195.9081545093528 137.7899660786307 H 0.0 **** 0.06
5734 H 83.58780418558439 194.90023088395836 139.2572947919196 H 0.0 **** 0.06
5735 H 84.9317643406821 196.01811090475988 138.9255870615459 H 0.0 **** 0.06
5736 C 125.57184326242555 86.80438448814328 69.35167204449525 C 0.0 **** -0.24
5737 H 125.66745583548362 87.88562373826852 69.25781556719824 H 0.0 **** 0.06
5738 H 125.91899400426183 86.49278113766422 70.33741028114976 H 0.0 **** 0.06
5739 H 126.17415908986726 86.31899540448057 68.58386072974294 H 0.0 **** 0.06
5740 H 124.52676412008981 86.52013767215999 69.22760159988974 H 0.0 **** 0.06
5741 C 67.32505765193001 22.34769973161997 25.657922579077095 C 0.0 **** -0.24
5742 H 66.51583745219372 21.620658717907105 25.731053836158694 H 0.0 **** 0.06
5743 H 68.18288443159139 21.88814995628536 25.166580169979923 H 0.0 **** 0.06
5744 H 67.60994764051227 22.674748672816833 26.657440865631344 H 0.0 **** 0.06
5745 H 66.98864095671327 23.206098720906425 25.076206905932665 H 0.0 **** 0.06
5746 C 216.5124719576914 173.91498634345362 43.748502141018946 C 0.0 **** -0.24
5747 H 217.33895817003997 173.53037828964176 44.34682842120776 H 0.0 **** 0.06
5748 H 215.65775613538514 173.24284063573407 43.83605886128106 H 0.0 **** 0.06
5749 H 216.81938132275394 173.97796327329183 42.70410772392978 H 0.0 **** 0.06
5750 H 216.2352825342935 174.90583316024168 44.10657297792858 H 0.0 **** 0.06
5751 C 12.184725611990586 78.27625630554837 204.54070091768395 C 0.0 **** -0.24
5752 H 11.551526196930809 77.52900491011741 204.06161950284675 H 0.0 **** 0.06
5753 H 11.586243142603024 79.15388516594669 204.78773629281125 H 0.0 **** 0.06
5754 H 12.987196104188541 78.56293035562192 203.8611155788911 H 0.0 **** 0.06
5755 H 12.611718369313593 77.85899238229939 205.4525129244289 H 0.0 **** 0.06
5756 C 51.027243736453386 24.900858680658487 174.12464600664578 C 0.0 **** -0.24
5757 H 51.889748924223966 25.412660020031396 173.69794432651685 H 0.0 **** 0.06
5758 H 50.70512407521622 25.422593164945383 175.0263045910777 H 0.0 **** 0.06
5759 H 51.300087939228845 23.876477399287893 174.37572198449902 H 0.0 **** 0.06
5760 H 50.21389140153849 24.893566068559124 173.39933302144686 H 0.0 **** 0.06
5761 C 60.72865378965298 54.791379838188675 140.85273254518694 C 0.0 **** -0.24
5762 H 61.59653550801406 54.203818978890865 140.55254476402916 H 0.0 **** 0.06
5763 H 60.66851402333117 54.81979728014642 141.9409897779974 H 0.0 **** 0.06
5764 H 59.82512245774444 54.334507669295476 140.4499732164512 H 0.0 **** 0.06
5765 H 60.82613582556533 55.8062654388562 140.466496067648 H 0.0 **** 0.06
5766 C 139.5391183325507 148.39335542735267 213.75410107500028 C 0.0 **** -0.24
5767 H 139.72325484076504 148.24204702108347 214.8174841858357 H 0.0 **** 0.06
5768 H 138.46713165903088 148.34791852613262 213.56128457810465 H 0.0 **** 0.06
5769 H 140.04442736103198 147.61359036804214 213.18325924594097 H 0.0 **** 0.06
5770 H 139.92122265769666 149.3685297765241 213.4542204493273 H 0.0 **** 0.06
5771 C 49.19413441830781 63.033069647042794 87.771657285343 C 0.0 **** -0.24
5772 H 50.104764842398424 62.51922957794035 87.46268356212096 H 0.0 **** 0.06
5773 H 48.3422168508267 62.618092731330705 87.23270667538304 H 0.0 **** 0.06
5774 H 49.283215708629285 64.0955143178874 87.54755471469537 H 0.0 **** 0.06
5775 H 49.04649603451742 62.898454790563676 88.84364884377328 H 0.0 **** 0.06
5776 C 204.53208043767006 117.40212670535247 166.5863091994581 C 0.0 **** -0.24
5777 H 203.55205815226992 117.87424285301246 166.51377776972484 H 0.0 **** 0.06
5778 H 205.0143298568892 117.41455284048281 165.6087207223881 H 0.0 **** 0.06
5779 H 204.41441251050827 116.37116653284811 166.92132193472344 H 0.0 **** 0.06
5780 H 205.14656887326714 117.94877392676888 167.30161746461494 H 0.0 **** 0.06
5781 C 22.663624090287 55.94768882255657 20.841553412453308 C 0.0 **** -0.24
5782 H 22.273212063837377 56.280687817217114 19.880144421652062 H 0.0 **** 0.06
5783 H 22.114026420887456 56.43751028301179 21.64550084787213 H 0.0 **** 0.06
5784 H 23.719721018489636 56.20697893682073 20.912982008176428 H 0.0 **** 0.06
5785 H 22.54724028614659 54.867697128508624 20.926393680117272 H 0.0 **** 0.06
5786 C 213.12047847748283 159.6747733782972 120.57691432814913 C 0.0 **** -0.24
5787 H 213.53887286301398 160.5402336489229 121.08981371252345 H 0.0 **** 0.06
5788 H 213.913231550413 158.95527607076673 120.37173799262887 H 0.0 **** 0.06
5789 H 212.66688645978763 159.9933823975526 119.63836027448549 H 0.0 **** 0.06
5790 H 212.36195841442895 159.21012659310887 121.20749249837554 H 0.0 **** 0.06
5791 C 158.09389778827284 32.632903455142014 216.27633454206006 C 0.0 **** -0.24
5792 H 157.41811621555019 31.889172962477573 216.69817023415425 H 0.0 **** 0.06
5793 H 157.71988223501512 32.95317590288067 215.30446055684658 H 0.0 **** 0.06
5794 H 159.0862966308148 32.19586573240241 216.15833568047321 H 0.0 **** 0.06
5795 H 158.1522802786269 33.490929567041235 216.945761764996 H 0.0 **** 0.06
5796 C 105.75871356117483 85.61887897516579 141.44364688454124 C 0.0 **** -0.24
5797 H 106.05521374128705 86.65799985959461 141.29964142347973 H 0.0 **** 0.06
5798 H 105.62926535177223 85.42155673769707 142.50813185133205 H 0.0 **** 0.06
5799 H 106.53126187951875 84.96325202021995 141.04258389857097 H 0.0 **** 0.06
5800 H 104.8187990675508 85.43461647833772 140.92272824929984 H 0.0 **** 0.06
5801 C 58.1330680561274 47.56440656796198 205.61537156606778 C 0.0 **** -0.24
5802 H 57.4069903276353 47.776408539957885 204.83098810075097 H 0.0 **** 0.06
5803 H 57.70860828065747 46.84655622319099 206.31818444339092 H 0.0 **** 0.06
5804 H 58.38016796497715 48.48617483289691 206.14115861575004 H 0.0 **** 0.06
5805 H 59.03611970554948 47.145973970526654 205.16956214780032 H 0.0 **** 0.06
5806 C 22.40900718440855 183.42636394980116 86.67982828426261 C 0.0 **** -0.24
5807 H 21.728965340018846 182.78522841467964 87.24209910739415 H 0.0 **** 0.06
5808 H 23.33495736285016 183.55250419095546 87.24100476733986 H 0.0 **** 0.06
5809 H 21.9425836455967 184.39945386919237 86.52345935671156 H 0.0 **** 0.06
5810 H 22.62593542417136 182.96793520035368 85.71558228961356 H 0.0 **** 0.06
5811 C 192.1967632765108 214.0531566331622 31.85611606334595 C 0.0 **** -0.24
5812 H 191.32724052236998 213.65661039385674 31.331460552639243 H 0.0 **** 0.06
5813 H 192.6755601085125 214.8157791756776 31.241924246856527 H 0.0 **** 0.06
5814 H 192.90275844554617 213.24526913086572 32.049190521656 H 0.0 **** 0.06
5815 H 191.87959930431293 214.49287827516517 32.80167940224216 H 0.0 **** 0.06
5816 C 91.04528313914678 42.343899479068824 123.18339809126422 C 0.0 **** -0.24
5817 H 90.28441346710572 43.116818303153366 123.07103713457332 H 0.0 **** 0.06
5818 H 91.55277119537284 42.47166143545793 124.14028780054207 H 0.0 **** 0.06
5819 H 91.76995449179417 42.42761378791377 122.37364721748799 H 0.0 **** 0.06
5820 H 90.57369184358264 41.36168085673718 123.14970287374888 H 0.0 **** 0.06
5821 C 208.0038681700769 52.805720840031086 192.96170297660757 C 0.0 **** -0.24
5822 H 207.38873238879003 52.27136130000221 193.68562975986754 H 0.0 **** 0.06
5823 H 209.01294447508593 52.39309866496086 192.9674558136689 H 0.0 **** 0.06
5824 H 208.0414679087848 53.86186143684489 193.22788605129972 H 0.0 **** 0.06
5825 H 207.57087721120362 52.69649427330023 191.96721540572076 H 0.0 **** 0.06
5826 C 124.03017692841246 104.05899353674391 150.7330737661951 C 0.0 **** -0.24
5827 H 124.9818904036643 104.15733491136683 150.2116712748757 H 0.0 **** 0.06
5828 H 123.3005586099789 103.58866611932223 150.0717429760013 H 0.0 **** 0.06
5829 H 123.67245674210511 105.04644596862602 151.02525881843144 H 0.0 **** 0.06
5830 H 124.164817944373 103.44361593277853 151.6221993622005 H 0.0 **** 0.06
5831 C 25.66537356884109 66.91157630062575 56.61026383201482 C 0.0 **** -0.24
5832 H 25.501931641565633 67.3121021035554 55.609602070836274 H 0.0 **** 0.06
5833 H 24.891731326575552 66.176687609644 56.837548820026086 H 0.0 **** 0.06
5834 H 25.621263703894698 67.72186608906814 57.33780346020603 H 0.0 **** 0.06
5835 H 26.64363143303183 66.43527671742793 56.65561091163352 H 0.0 **** 0.06
5836 C 132.45586598509453 89.4694752564309 192.2209385017216 C 0.0 **** -0.24
5837 H 132.0487118696418 88.46504256200815 192.33622346484978 H 0.0 **** 0.06
5838 H 132.3131599721426 89.8037321318847 191.1920660532246 H 0.0 **** 0.06
5839 H 133.52053438825942 89.4593865174143 192.4550101798949 H 0.0 **** 0.06
5840 H 131.9410236601786 90.1501089979643 192.89876238842785 H 0.0 **** 0.06
5841 C 169.36390739891223 34.88785923219331 127.43224641706227 C 0.0 **** -0.24
5842 H 170.3399341233638 34.87955246979527 127.91656444610497 H 0.0 **** 0.06
5843 H 168.67316630030177 34.25915793919012 127.99501419542976 H 0.0 **** 0.06
5844 H 169.45886556492513 34.502923664887305 126.41665757257543 H 0.0 **** 0.06
5845 H 168.98184226145318 35.908368777343384 127.39884517624778 H 0.0 **** 0.06
5846 C 72.02214021428995 12.302857568178013 133.14066554723894 C 0.0 **** -0.24
5847 H 71.70354283349286 13.170582768138132 133.72011171270208 H 0.0 **** 0.06
5848 H 71.14831456325402 11.719872119028764 132.850508992264 H 0.0 **** 0.06
5849 H 72.68633993926437 11.68651089333963 133.74634585472182 H 0.0 **** 0.06
5850 H 72.55060194933355 12.63714782483396 132.24809210550217 H 0.0 **** 0.06
5851 C 32.88976062032805 121.78173311861157 123.60083510364557 C 0.0 **** -0.24
5852 H 33.632543998495635 120.98525667906456 123.64375675717604 H 0.0 **** 0.06
5853 H 33.34511844438714 122.72099605824651 123.91782808774504 H 0.0 **** 0.06
5854 H 32.05885491589811 121.53947853326603 124.26306886534503 H 0.0 **** 0.06
5855 H 32.523709955986305 121.88190403966466 122.57900643142806 H 0.0 **** 0.06
5856 C 105.66183174587455 134.6599159707671 39.118213837283804 C 0.0 **** -0.24
5857 H 105.05738516929209 135.5498135722894 39.29745042255689 H 0.0 **** 0.06
5858 H 105.02636468128658 133.77547394723632 39.15846363568784 H 0.0 **** 0.06
5859 H 106.43663892347219 134.58720331539416 39.880840763689775 H 0.0 **** 0.06
5860 H 106.12598155479749 134.7296086052632 38.133619984164 H 0.0 **** 0.06
5861 C 96.90116851472237 93.5197404730361 0.5519447604425665 C 0.0 **** -0.24
5862 H 96.63107062419425 94.22717530490534 -0.23178747523208187 H 0.0 **** 0.06
5863 H 97.79100021068228 93.87536217806756 1.0712499595016283 H 0.0 **** 0.06
5864 H 97.1051281388958 92.54518002314713 0.10729371244615749 H 0.0 **** 0.06
5865 H 96.0771056153111 93.43064918115273 1.260309234395855 H 0.0 **** 0.06
5866 C 27.545639748803012 185.62536234239553 206.87014846900462 C 0.0 **** -0.24
5867 H 28.02039072234612 185.74061444347234 207.84438591338017 H 0.0 **** 0.06
5868 H 28.311346768594206 185.48954108108993 206.10618872769663 H 0.0 **** 0.06
5869 H 26.958969304930804 186.5158675747629 206.6440547684638 H 0.0 **** 0.06
5870 H 26.890803323113516 184.75340661721802 206.88687053598653 H 0.0 **** 0.06
5871 C 152.3440986926757 118.02251182804012 203.29846268615628 C 0.0 **** -0.24
5872 H 151.72186163491205 117.72851841890822 204.14354022716066 H 0.0 **** 0.06
5873 H 153.26922932507472 117.44635731127055 203.3109694978774 H 0.0 **** 0.06
5874 H 152.57630009265495 119.08541279179353 203.37081046739107 H 0.0 **** 0.06
5875 H 151.80716363863831 117.8304200399567 202.36895117584962 H 0.0 **** 0.06
5876 C 170.7456018596685 56.915336208528004 176.22716480673824 C 0.0 **** -0.24
5877 H 170.68866185997652 56.861882266562304 175.13982969088008 H 0.0 **** 0.06
5878 H 171.26883594833765 57.826195183777884 176.5190332037609 H 0.0 **** 0.06
5879 H 171.28557448984324 56.04767107385425 176.6063862610664 H 0.0 **** 0.06
5880 H 169.73810968522992 56.926237717401875 176.643115300697 H 0.0 **** 0.06
5881 C 6.260359559825048 74.82673551315547 99.67237538888192 C 0.0 **** -0.24
5882 H 6.911779766929001 74.01884318520847 100.00585228358351 H 0.0 **** 0.06
5883 H 5.218489050960358 74.52970953011506 99.80070145846018 H 0.0 **** 0.06
5884 H 6.45153473199926 75.03630515368862 98.61990555228373 H 0.0 **** 0.06
5885 H 6.458997722094878 75.72140792174805 100.26267218082965 H 0.0 **** 0.06
5886 C 57.23119667962327 72.82261438569456 110.4997717980488 C 0.0 **** -0.24
5887 H 57.39038874501654 73.32561597123554 109.545713395216 H 0.0 **** 0.06
5888 H 57.23796306444814 71.74307811841796 110.34676587303791 H 0.0 **** 0.06
5889 H 56.26951754018823 73.125249937632 110.913890245915 H 0.0 **** 0.06
5890 H 58.027071755049775 73.09682610820202 111.19178041197786 H 0.0 **** 0.06
5891 C 144.58177599523276 152.48198277553593 177.45868272908197 C 0.0 **** -0.24
5892 H 145.1460978619399 153.39644167045714 177.27576226059372 H 0.0 **** 0.06
5893 H 144.62686156361337 152.2333811872358 178.51932154137114 H 0.0 **** 0.06
5894 H 145.01066711353184 151.66780699877626 176.87545693159518 H 0.0 **** 0.06
5895 H 143.54268011312502 152.63211081793497 177.16448982078364 H 0.0 **** 0.06
5896 C 196.8471292440684 40.25960269828846 118.64227413650453 C 0.0 **** -0.24
5897 H 196.43118786333116 40.14591653531181 117.64085995047604 H 0.0 **** 0.06
5898 H 197.12272465243828 41.30181455524894 118.80480339772 H 0.0 **** 0.06
5899 H 197.73172665390334 39.62983885288452 118.74054961443854 H 0.0 **** 0.06
5900 H 196.104300440715 39.96015401886609 119.38101155847313 H 0.0 **** 0.06
5901 C 126.03032254198452 47.32965657379975 64.53990848131838 C 0.0 **** -0.24
5902 H 124.96414616100127 47.48636097692338 64.70495937826945 H 0.0 **** 0.06
5903 H 126.53927277859107 47.2510217556067 65.50109336229929 H 0.0 **** 0.06
5904 H 126.43821957074839 48.17102772217788 63.97969892984443 H 0.0 **** 0.06
5905 H 126.17861416466435 46.41048482581084 63.972959601507284 H 0.0 **** 0.06
5906 C 143.877781713272 170.70871316912243 29.750624601629056 C 0.0 **** -0.24
5907 H 143.65132187758155 169.8784563741532 30.41978208580383 H 0.0 **** 0.06
5908 H 144.6309817818776 171.3496806843104 30.208831364781133 H 0.0 **** 0.06
5909 H 142.97132798780547 171.2856672084165 29.566948746793628 H 0.0 **** 0.06
5910 H 144.258244172175 170.3192371989935 28.80546696878912 H 0.0 **** 0.06
5911 C 78.34300280629566 86.38570734449748 8.204289843790392 C 0.0 **** -0.24
5912 H 77.56894423387757 85.66436835843545 8.463751803485295 H 0.0 **** 0.06
5913 H 77.9273602583961 87.13992594045119 7.535328159012963 H 0.0 **** 0.06
5914 H 79.16579571701311 85.8726865631444 7.708145096030265 H 0.0 **** 0.06
5915 H 78.70906437089798 86.86686715598823 9.11173588525024 H 0.0 **** 0.06
5916 C 103.75825677196967 166.71116128034595 65.82044382369408 C 0.0 **** -0.24
5917 H 103.04614397288263 166.1998535914118 66.46942608281788 H 0.0 **** 0.06
5918 H 103.24136026590564 167.08451412975583 64.9371189870283 H 0.0 **** 0.06
5919 H 104.53849515255301 166.01284338882013 65.51771403020275 H 0.0 **** 0.06
5920 H 104.20683480373732 167.54554911345707 66.36074267724145 H 0.0 **** 0.06
5921 C 67.96980245344459 120.64912033266502 46.492469634093595 C 0.0 **** -0.24
5922 H 69.03837383196121 120.85186298866405 46.422693160300796 H 0.0 **** 0.06
5923 H 67.75570780372725 120.14801140113603 47.43734607262273 H 0.0 **** 0.06
5924 H 67.66582620364909 120.00793577884572 45.66472574016372 H 0.0 **** 0.06
5925 H 67.41789087239982 121.58808228841035 46.44592723997654 H 0.0 **** 0.06
5926 C 205.79240031317062 99.56278393403385 94.10419651202797 C 0.0 **** -0.24
5927 H 205.46571042975506 100.60267889287174 94.09336445790218 H 0.0 **** 0.06
5928 H 206.68708538536043 99.45679815955178 93.49000778878353 H 0.0 **** 0.06
5929 H 204.9997986695193 98.93013402109925 93.70585765823144 H 0.0 **** 0.06
5930 H 206.0155860415293 99.26338328140518 95.12828221071037 H 0.0 **** 0.06
5931 C 42.78743747743022 162.6370645164432 35.84780468410001 C 0.0 **** -0.24
5932 H 41.99387735663464 163.37719799751127 35.94556911750338 H 0.0 **** 0.06
5933 H 43.55746265949344 163.0156123440233 35.17481589098581 H 0.0 **** 0.06
5934 H 42.37393348009823 161.71299653511682 35.44316539348132 H 0.0 **** 0.06
5935 H 43.224463597761314 162.4421188493787 36.82672525277815 H 0.0 **** 0.06
5936 C 168.24564792724374 182.1914252003806 165.39958962593107 C 0.0 **** -0.24
5937 H 167.74479067155676 183.15495987926255 165.3078941447668 H 0.0 **** 0.06
5938 H 169.16186128267208 182.31242890715578 165.97876606813776 H 0.0 **** 0.06
5939 H 168.49095830565193 181.81443547451335 164.40655855557418 H 0.0 **** 0.06
5940 H 167.58668220016636 181.48522943939946 165.90461324179972 H 0.0 **** 0.06
5941 C 140.06234194056793 205.02485807711548 84.79818832255233 C 0.0 **** -0.24
5942 H 141.12663855826844 205.10482640984034 85.01541604084639 H 0.0 **** 0.06
5943 H 139.5549700025083 204.54926775814326 85.6371452289311 H 0.0 **** 0.06
5944 H 139.91955713849893 204.42580065374855 83.89913780612426 H 0.0 **** 0.06
5945 H 139.64763815223887 206.02137907089042 84.64051510371377 H 0.0 **** 0.06
5946 C 148.64785301273264 110.76468537641209 95.84623127004785 C 0.0 **** -0.24
5947 H 148.36618024095668 111.54519824706698 96.55231641221339 H 0.0 **** 0.06
5948 H 149.54490430002136 110.25845947611946 96.20320811456124 H 0.0 **** 0.06
5949 H 148.84580347931671 111.21189007025622 94.87079867148485 H 0.0 **** 0.06
5950 H 147.83448458952324 110.04411096500574 95.75713316053323 H 0.0 **** 0.06
5951 C 208.20647972125192 91.23556822838752 79.25562385800295 C 0.0 **** -0.24
5952 H 209.07276348805107 91.80006933310803 79.60164276973931 H 0.0 **** 0.06
5953 H 207.3595804710306 91.43043610397645 79.91325620266382 H 0.0 **** 0.06
5954 H 208.4382290692649 90.17105229645439 79.26621576864257 H 0.0 **** 0.06
5955 H 207.95624598883006 91.543104969243 78.2398062634367 H 0.0 **** 0.06
5956 C 183.13929423916545 95.04234721839752 103.73409940959813 C 0.0 **** -0.24
5957 H 183.99636632955568 95.53786181692938 104.19044013256944 H 0.0 **** 0.06
5958 H 182.48888125016876 95.78837232200222 103.27757819048973 H 0.0 **** 0.06
5959 H 182.5857473587551 94.49609078805712 104.4980437174906 H 0.0 **** 0.06
5960 H 183.48707378368476 94.34612704153575 102.97090743443137 H 0.0 **** 0.06
5961 C 15.697489130388774 202.6562045168666 184.9964283787778 C 0.0 **** -0.24
5962 H 15.107062220390006 202.05595264476315 184.30362977618196 H 0.0 **** 0.06
5963 H 16.03597419393057 202.0300140176973 185.82185157666157 H 0.0 **** 0.06
5964 H 15.086443112847249 203.47019759442978 185.38470553156213 H 0.0 **** 0.06
5965 H 16.56155672798053 203.06703163175587 184.47442991014583 H 0.0 **** 0.06
5966 C 103.06245776543155 11.989239857728904 164.29902055130907 C 0.0 **** -0.24
5967 H 102.1827233521142 11.466505068020268 164.67485142273705 H 0.0 **** 0.06
5968 H 103.01048548902752 13.039591224997821 164.5864123252369 H 0.0 **** 0.06
5969 H 103.09608713603659 11.909732527963456 163.2124678440266 H 0.0 **** 0.06
5970 H 103.96061344161437 11.540132457060736 164.72458615628034 H 0.0 **** 0.06
5971 C 91.83085719594352 85.33478057575932 9.519820097362299 C 0.0 **** -0.24
5972 H 91.50741023073924 85.57380150153095 8.507651552732398 H 0.0 **** 0.06
5973 H 92.23574435533153 84.32226308952606 9.542445103574707 H 0.0 **** 0.06
5974 H 90.9808402090135 85.4019949186383 10.198093253053358 H 0.0 **** 0.06
5975 H 92.60053423228247 86.04068018662544 9.831892421504605 H 0.0 **** 0.06
5976 C 86.17073809655227 172.1035927647124 100.55615444232238 C 0.0 **** -0.24
5977 H 86.36502962164099 172.1580559839509 101.6270954722976 H 0.0 **** 0.06
5978 H 87.11728163641254 172.0383345344477 100.01853855121335 H 0.0 **** 0.06
5979 H 85.63218591820544 172.99553646945634 100.23818574612666 H 0.0 **** 0.06
5980 H 85.56936926773608 171.22046853652586 100.34130970920886 H 0.0 **** 0.06
5981 C 32.16193195292796 214.87618263596048 134.22172133398192 C 0.0 **** -0.24
5982 H 32.55629860109404 215.29265888146438 133.2952254580992 H 0.0 **** 0.06
5983 H 31.287703488323658 215.44865760612225 134.53407715949663 H 0.0 **** 0.06
5984 H 32.92558272642856 214.92613780588013 134.99691556000352 H 0.0 **** 0.06
5985 H 31.876295257490924 213.83606548096503 134.06032076970598 H 0.0 **** 0.06
5986 C 26.59077934567017 118.96653480083141 208.66518818650826 C 0.0 **** -0.24
5987 H 25.907793157814467 118.11882978057146 208.70738038160488 H 0.0 **** 0.06
5988 H 26.017167992130737 119.88898207808286 208.56327052301737 H 0.0 **** 0.06
5989 H 27.256698518482352 118.85576557683824 207.80896918223777 H 0.0 **** 0.06
5990 H 27.17974087919589 119.00500715490101 209.58140231082837 H 0.0 **** 0.06
5991 C 163.83043749239118 162.08413146376435 66.50232492567244 C 0.0 **** -0.24
5992 H 163.68331915159143 161.88817782687303 67.56499162929254 H 0.0 **** 0.06
5993 H 164.25457596363367 163.07967140438646 66.37280691599 H 0.0 **** 0.06
5994 H 162.87188226533726 162.02748478292818 65.98691037417757 H 0.0 **** 0.06
5995 H 164.51152083181262 161.3414089487366 66.08737447056961 H 0.0 **** 0.06
5996 C 101.63092631050203 95.91541415406516 34.886436719773954 C 0.0 **** -0.24
5997 H 100.9437955395261 96.35193382873877 34.16055240437163 H 0.0 **** 0.06
5998 H 101.60954493581555 96.50297229339196 35.80417274026921 H 0.0 **** 0.06
5999 H 102.64109471661119 95.91682160492348 34.47699448117636 H 0.0 **** 0.06
6000 H 101.32723439393085 94.89134203053732 35.10233631026877 H 0.0 **** 0.06
6001 C 62.355845525990105 2.2589045689056206 13.958122171758077 C 0.0 **** -0.24
6002 H 61.942328076399974 1.853704119872873 14.882090280074308 H 0.0 **** 0.06
6003 H 63.43560787077115 2.371889835783179 14.062130671904299 H 0.0 **** 0.06
6004 H 61.90594275445096 3.230688497222843 13.75468758645384 H 0.0 **** 0.06
6005 H 62.13916250041353 1.578319384461338 13.134502467955457 H 0.0 **** 0.06
6006 C 158.63091920359363 160.52823187611585 169.59955856276483 C 0.0 **** -0.24
6007 H 157.7495129438052 160.00742833201184 169.22528217838754 H 0.0 **** 0.06
6008 H 158.36523292289667 161.09482098411678 170.4923176168018 H 0.0 **** 0.06
6009 H 159.00289865164095 161.20906917042555 168.83397250989935 H 0.0 **** 0.06
6010 H 159.40475358873272 159.80187208842653 169.84780025717254 H 0.0 **** 0.06
6011 C 175.23482221324554 52.70449712688452 130.84852078584652 C 0.0 **** -0.24
6012 H 174.62803661320783 52.74111039202177 129.94363358554972 H 0.0 **** 0.06
6013 H 176.28989938266636 52.77078328524391 130.58145438575337 H 0.0 **** 0.06
6014 H 175.0511853017106 51.765967432697266 131.37089672636688 H 0.0 **** 0.06
6015 H 174.97094478062235 53.53893868993197 131.49710700941694 H 0.0 **** 0.06
6016 C 6.963860001661786 37.18975846024972 42.41112084015094 C 0.0 **** -0.24
6017 H 7.75299157600756 36.518644302274154 42.07153390319165 H 0.0 **** 0.06
6018 H 6.251803534811245 37.35213191101613 41.60263672213078 H 0.0 **** 0.06
6019 H 7.401618087296981 38.1431835388142 42.70700192486386 H 0.0 **** 0.06
6020 H 6.451199598702644 36.74429102315867 43.26412683285439 H 0.0 **** 0.06
6021 C 203.85927670263555 194.27990583514566 87.2908853402929 C 0.0 **** -0.24
6022 H 204.6403746017552 195.04089681984948 87.28773113979395 H 0.0 **** 0.06
6023 H 202.89633354690494 194.74920580141986 87.49565149879305 H 0.0 **** 0.06
6024 H 204.07520232004356 193.54166817398942 88.06241071198968 H 0.0 **** 0.06
6025 H 203.82525085844665 193.79029415771436 86.31793684535398 H 0.0 **** 0.06
6026 C 69.99281949727907 150.33130168604038 196.50346610769526 C 0.0 **** -0.24
6027 H 69.95363711347557 150.15155845794135 195.42918390715045 H 0.0 **** 0.06
6028 H 70.65646551801103 149.60353230742828 196.97014246588344 H 0.0 **** 0.06
6029 H 68.99214442902428 150.23467760846205 196.92425504064732 H 0.0 **** 0.06
6030 H 70.3689773606655 151.33773296875154 196.68835115243087 H 0.0 **** 0.06
6031 C 27.03252674524299 94.55426486281715 5.518099921022198 C 0.0 **** -0.24
6032 H 26.5024294541808 93.66829443617536 5.868247617534706 H 0.0 **** 0.06
6033 H 27.792907052709154 94.83423637189901 6.247244543627062 H 0.0 **** 0.06
6034 H 26.32440605061396 95.37487437514699 5.396349055975584 H 0.0 **** 0.06
6035 H 27.50751457719636 94.33957839581927 4.561492689715138 H 0.0 **** 0.06
6036 C 24.006653297804064 59.656462803904446 95.2627830723297 C 0.0 **** -0.24
6037 H 23.453294526887703 58.805120401717375 94.86600312449819 H 0.0 **** 0.06
6038 H 25.07425136411308 59.442119504151435 95.23317851848778 H 0.0 **** 0.06
6039 H 23.70077367993474 59.8400917297825 96.29342182439997 H 0.0 **** 0.06
6040 H 23.79628972050932 60.53968765508267 94.65931627854879 H 0.0 **** 0.06
6041 C 151.01604674440637 32.441246645397484 134.44607999092767 C 0.0 **** -0.24
6042 H 151.53054478711067 31.76243460546516 133.76553379542065 H 0.0 **** 0.06
6043 H 151.2574268222741 32.1750568810092 135.47592941257597 H 0.0 **** 0.06
6044 H 149.940032318379 32.363619550791725 134.29240138223935 H 0.0 **** 0.06
6045 H 151.33795311352338 33.464015655699086 134.24953487837314 H 0.0 **** 0.06
6046 C 114.39017074099525 31.099581886706787 29.933033641999742 C 0.0 **** -0.24
6047 H 114.97683911937838 31.01729530460628 30.84824852211341 H 0.0 **** 0.06
6048 H 113.33193578019484 31.165269747472138 30.185814196766557 H 0.0 **** 0.06
6049 H 114.56214154357417 30.221127238393635 29.31128722594468 H 0.0 **** 0.06
6050 H 114.68960984800646 31.995007311809914 29.3884689863213 H 0.0 **** 0.06
6051 C 90.7892277962326 45.080658325796705 188.69114443710492 C 0.0 **** -0.24
6052 H 91.47875666908642 44.560717047917436 188.02520813584152 H 0.0 **** 0.06
6053 H 90.22694045371786 44.35000084178627 189.27296634254844 H 0.0 **** 0.06
6054 H 90.10018911984848 45.68377910623575 188.10117398212796 H 0.0 **** 0.06
6055 H 91.35277664984638 45.726303881357566 189.36397474753036 H 0.0 **** 0.06
6056 C 24.91710697861663 126.27159674503436 160.49577453049523 C 0.0 **** -0.24
6057 H 25.785960536034196 125.92727100028428 159.9362770891821 H 0.0 **** 0.06
6058 H 24.077937813062192 126.41289374572797 159.8145371207701 H 0.0 **** 0.06
6059 H 25.151785589737017 127.21661531779692 160.9855244476533 H 0.0 **** 0.06
6060 H 24.653070668145403 125.52908731532033 161.24913083285958 H 0.0 **** 0.06
6061 C 117.28310736770187 6.6493377921043475 28.551204495513673 C 0.0 **** -0.24
6062 H 116.67919498555086 6.51405971558907 27.653554327047658 H 0.0 **** 0.06
6063 H 117.27738452272992 7.700800975386699 28.83725789713708 H 0.0 **** 0.06
6064 H 118.30642934261805 6.331682979994525 28.350339619629665 H 0.0 **** 0.06
6065 H 116.86934487380414 6.0487603070550335 29.361474466146603 H 0.0 **** 0.06
6066 C 41.0159357233655 42.36608973399302 37.5655104962386 C 0.0 **** -0.24
6067 H 40.0759282616301 42.6682833069209 38.028662928791846 H 0.0 **** 0.06
6068 H 41.11591070070381 42.85541492519616 36.59623911437677 H 0.0 **** 0.06
6069 H 41.02336137819715 41.28481451107882 37.42961759196925 H 0.0 **** 0.06
6070 H 41.84617305318898 42.65793011144848 38.207729529517735 H 0.0 **** 0.06
6071 C 77.50391891119672 147.60104860018316 122.54768154468594 C 0.0 **** -0.24
6072 H 78.58880224705662 147.5098205950669 122.60553259866388 H 0.0 **** 0.06
6073 H 77.041543453449 146.8190500054924 123.14927048716577 H 0.0 **** 0.06
6074 H 77.18692277195255 147.49829313224086 121.50994704329013 H 0.0 **** 0.06
6075 H 77.20149221228657 148.57824442530085 122.92497129846278 H 0.0 **** 0.06
6076 C 94.13390024243854 4.819880225283335 55.32970679459571 C 0.0 **** -0.24
6077 H 93.17164570688935 4.6659535347183905 54.84189749718601 H 0.0 **** 0.06
6078 H 94.07052108724444 5.683207204309582 55.992569342481815 H 0.0 **** 0.06
6079 H 94.89959783771143 4.996171547526728 54.57459773639235 H 0.0 **** 0.06
6080 H 94.39292939239029 3.9339159896760947 55.91008376028633 H 0.0 **** 0.06
6081 C 63.348145402540865 172.0766165760276 184.34176430389766 C 0.0 **** -0.24
6082 H 64.1911441283559 171.5638210003898 183.8780736837312 H 0.0 **** 0.06
6083 H 63.718438890000954 172.87217449897267 184.98854051343665 H 0.0 **** 0.06
6084 H 62.77179571625207 171.3646446453847 184.93284310724232 H 0.0 **** 0.06
6085 H 62.71279432967272 172.50459207474955 183.56662811197265 H 0.0 **** 0.06
6086 C 132.11154799659454 49.32515983274641 212.82653130502064 C 0.0 **** -0.24
6087 H 132.3688451960336 49.68537290123555 213.82263713999075 H 0.0 **** 0.06
6088 H 131.11546936424935 49.675618904611326 212.55896092525603 H 0.0 **** 0.06
6089 H 132.12905735170204 48.23581773891431 212.8188930073042 H 0.0 **** 0.06
6090 H 132.8362305502846 49.70535660310833 212.10543992682878 H 0.0 **** 0.06
6091 C 16.060116407245857 35.5696897816688 36.82995586188069 C 0.0 **** -0.24
6092 H 16.320004694477177 36.549539155919234 36.42678039870859 H 0.0 **** 0.06
6093 H 15.423581352742701 35.69555225591428 37.706740286282994 H 0.0 **** 0.06
6094 H 16.969955791374332 35.04225203598814 37.1139978165987 H 0.0 **** 0.06
6095 H 15.527453467625719 34.99550338603899 36.07220306305494 H 0.0 **** 0.06
6096 C 87.5276485232631 16.680320034518175 50.65098933543857 C 0.0 **** -0.24
6097 H 87.64363526926708 17.73345800661724 50.394309322957625 H 0.0 **** 0.06
6098 H 87.17538622402036 16.59518174335075 51.67892118070523 H 0.0 **** 0.06
6099 H 88.48876199891681 16.17570770421206 50.552503706201605 H 0.0 **** 0.06
6100 H 86.80462236539141 16.220205432333415 49.97814028162122 H 0.0 **** 0.06
6101 C 12.626090909777986 115.99859402738616 198.8518374337957 C 0.0 **** -0.24
6102 H 11.878707643665734 116.66529043409423 199.281246656517 H 0.0 **** 0.06
6103 H 12.49531578061908 115.95517727036668 197.77028392224082 H 0.0 **** 0.06
6104 H 12.506813699913153 114.99996812504423 199.27252424969026 H 0.0 **** 0.06
6105 H 13.622463218941562 116.37337679310986 199.08255199486052 H 0.0 **** 0.06
6106 C 66.80291067894359 165.56781090163855 185.19335846746847 C 0.0 **** -0.24
6107 H 67.34821784922126 166.362526038739 185.7016753610244 H 0.0 **** 0.06
6108 H 66.38845183536817 165.95053092818213 184.26063965301535 H 0.0 **** 0.06
6109 H 65.99390040656698 165.21548571217124 185.83402881440162 H 0.0 **** 0.06
6110 H 67.48126949815905 164.74205100977727 184.97782411551663 H 0.0 **** 0.06
6111 C 163.5570162794395 77.69304357121149 115.5258617350705 C 0.0 **** -0.24
6112 H 162.7400824092282 77.37790985963244 116.17525217017108 H 0.0 **** 0.06
6113 H 163.2544699771566 77.58534282925433 114.48414611876599 H 0.0 **** 0.06
6114 H 164.4328298745115 77.0712670074239 115.71651487641243 H 0.0 **** 0.06
6115 H 163.80118182378038 78.73526672987765 115.72775573154702 H 0.0 **** 0.06
6116 C 57.60409020842167 134.15162146587647 128.48270115840205 C 0.0 **** -0.24
6117 H 57.223038868718675 133.1576983483855 128.72081432086833 H 0.0 **** 0.06
6118 H 58.599474729646374 134.2706125955409 128.90944333457844 H 0.0 **** 0.06
6119 H 56.936485030845915 134.90507506821262 128.90036984066973 H 0.0 **** 0.06
6120 H 57.65462657181723 134.27072168249344 127.4011049650897 H 0.0 **** 0.06
6121 C 140.7814634336296 49.790561433370726 31.96078966950057 C 0.0 **** -0.24
6122 H 141.220839937778 50.30447914202904 32.81515141721127 H 0.0 **** 0.06
6123 H 139.9750756686405 49.141335765127224 32.30396012987745 H 0.0 **** 0.06
6124 H 141.54520823044663 49.189930749233895 31.466379101152995 H 0.0 **** 0.06
6125 H 140.38480932689436 50.52364098937758 31.25901691000803 H 0.0 **** 0.06
6126 C 168.23982149901514 102.83502259499672 184.57335163576272 C 0.0 **** -0.24
6127 H 168.80448855996235 103.76261050040794 184.6630450652806 H 0.0 **** 0.06
6128 H 167.55558330204315 102.7429435370769 185.41738758863355 H 0.0 **** 0.06
6129 H 168.92815506461397 101.98928982106519 184.5706812991683 H 0.0 **** 0.06
6130 H 167.6711824815418 102.84389156109056 183.6433644587848 H 0.0 **** 0.06
6131 C 160.75513364241766 82.5860569393695 25.96225122774075 C 0.0 **** -0.24
6132 H 160.00129453871153 81.93094176433355 26.398309528017663 H 0.0 **** 0.06
6133 H 160.86558601309463 83.4757932840373 26.582948951509422 H 0.0 **** 0.06
6134 H 160.4450129556231 82.8790656661754 24.959267588467938 H 0.0 **** 0.06
6135 H 161.708095265136 82.05926426128143 25.90851330894928 H 0.0 **** 0.06
6136 C 5.596636032021877 193.45959211645757 65.20249782984567 C 0.0 **** -0.24
6137 H 4.556562240146121 193.16877178317705 65.3505727449017 H 0.0 **** 0.06
6138 H 6.2279481690746366 192.92598525028748 65.91353499313101 H 0.0 **** 0.06
6139 H 5.699716752112806 194.53329360832032 65.3593850750176 H 0.0 **** 0.06
6140 H 5.901973596329128 193.20952334395048 64.18599759208927 H 0.0 **** 0.06
6141 C 169.19134777900774 18.082159626876887 164.52398223757083 C 0.0 **** -0.24
6142 H 169.64931088620384 17.14665281809414 164.8463034307182 H 0.0 **** 0.06
6143 H 168.76078893619078 17.952575493320523 163.53139009567025 H 0.0 **** 0.06
6144 H 169.94903561500138 18.865276820663553 164.49284151578945 H 0.0 **** 0.06
6145 H 168.40744814664077 18.36308960838676 165.22697145530293 H 0.0 **** 0.06
6146 C 91.58155717716575 96.23401804541903 56.54616383369728 C 0.0 **** -0.24
6147 H 91.59048343912714 97.30364831939276 56.75490417412499 H 0.0 **** 0.06
6148 H 90.58678865238726 95.93680736676588 56.213105965556224 H 0.0 **** 0.06
6149 H 91.84027288617106 95.68521339750727 57.45190153492376 H 0.0 **** 0.06
6150 H 92.30833013796526 96.0096590928891 55.76589320890383 H 0.0 **** 0.06
6151 C 215.4868284240411 85.15105685873407 47.755178658528635 C 0.0 **** -0.24
6152 H 216.09317807781915 85.52315836314081 46.92997523687134 H 0.0 **** 0.06
6153 H 214.43255013968974 85.31558043836354 47.532509782405995 H 0.0 **** 0.06
6154 H 215.7530172858983 85.68059196902841 48.669543563973136 H 0.0 **** 0.06
6155 H 215.6680918540409 84.08448396704067 47.886540621522755 H 0.0 **** 0.06
6156 C 105.43118411582434 141.20956613748115 101.9934819161907 C 0.0 **** -0.24
6157 H 104.81878370586664 141.94771482299006 101.4760397601414 H 0.0 **** 0.06
6158 H 105.34269130608784 141.35466501662745 103.07069660902023 H 0.0 **** 0.06
6159 H 106.47262474986688 141.32758408020635 101.6941070534153 H 0.0 **** 0.06
6160 H 105.08942331517547 140.20793117124657 101.73245876018105 H 0.0 **** 0.06
6161 C 177.51240075964412 110.66893022376142 22.749729812509045 C 0.0 **** -0.24
6162 H 176.4583351837233 110.4933085206646 22.96577824160582 H 0.0 **** 0.06
6163 H 177.60158124825608 111.28460880205212 21.855240098324956 H 0.0 **** 0.06
6164 H 178.01340309129682 109.7143136363827 22.586656256179808 H 0.0 **** 0.06
6165 H 177.97473001313818 111.18168311423078 23.59276851806362 H 0.0 **** 0.06
6166 C 65.49334416875011 122.26516918024807 95.60547513247339 C 0.0 **** -0.24
6167 H 66.38424216741478 121.87026415276462 95.11756130274777 H 0.0 **** 0.06
6168 H 64.98987953591823 122.96173945314065 94.9336884200696 H 0.0 **** 0.06
6169 H 65.77941146919808 122.78371777256213 96.51969609426745 H 0.0 **** 0.06
6170 H 64.81865562524435 121.44460655579532 95.84909262251561 H 0.0 **** 0.06
6171 C 114.3668237429922 196.63533881667593 92.76263527228089 C 0.0 **** -0.24
6172 H 114.26662248549486 197.71929209717976 92.71427085024528 H 0.0 **** 0.06
6173 H 113.44929604865659 196.16926897364343 92.40493854327217 H 0.0 **** 0.06
6174 H 114.55075191611023 196.33413743157985 93.79477059243801 H 0.0 **** 0.06
6175 H 115.20322997413724 196.31976890597213 92.13855483382311 H 0.0 **** 0.06
6176 C 138.19609525374955 5.101720245384719 175.65826852518308 C 0.0 **** -0.24
6177 H 137.32668353443063 4.6815886448380155 176.1647049477675 H 0.0 **** 0.06
6178 H 138.56632942139385 4.390188152162089 174.92020763488347 H 0.0 **** 0.06
6179 H 138.97719871744368 5.307011154047231 176.3899003650852 H 0.0 **** 0.06
6180 H 137.91215243556985 6.029389483671153 175.16006433108905 H 0.0 **** 0.06
6181 C 129.71648302570486 10.018522505203237 87.82928290001645 C 0.0 **** -0.24
6182 H 129.13331182895178 9.110755212052766 87.67433763862117 H 0.0 **** 0.06
6183 H 130.2460608562804 9.951447247028739 88.78070205184703 H 0.0 **** 0.06
6184 H 129.0500173685869 10.879982320665135 87.84427036034437 H 0.0 **** 0.06
6185 H 130.4369157280891 10.130215996567017 87.01923820083466 H 0.0 **** 0.06
6186 C 210.20924575099485 10.775411365509513 183.5200419383745 C 0.0 **** -0.24
6187 H 210.29037821738845 11.14191923540892 182.4964601635258 H 0.0 **** 0.06
6188 H 209.15882463629748 10.736439191806454 183.80989845804186 H 0.0 **** 0.06
6189 H 210.7471840201751 11.44665498761998 184.18959668406268 H 0.0 **** 0.06
6190 H 210.64100226012638 9.776319670557854 183.58255789956223 H 0.0 **** 0.06
6191 C 110.21891333467492 212.88073031835472 113.71261972589781 C 0.0 **** -0.24
6192 H 110.55819971280387 212.23250258257372 114.52096043590961 H 0.0 **** 0.06
6193 H 110.80807761778267 212.68132445949163 112.8174482957071 H 0.0 **** 0.06
6194 H 110.34441955784276 213.92285073735698 114.00619655466892 H 0.0 **** 0.06
6195 H 109.16659797192288 212.68450102182624 113.50768175168668 H 0.0 **** 0.06
6196 C 15.070821463898397 20.423828834483984 215.68966678602533 C 0.0 **** -0.24
6197 H 14.62899174826272 20.754473897167145 214.75055579477768 H 0.0 **** 0.06
6198 H 14.919921039572955 19.349818905599065 215.80369262102053 H 0.0 **** 0.06
6199 H 14.595372155301902 20.94710077904891 216.51954061458977 H 0.0 **** 0.06
6200 H 16.1380016065242 20.64355354637621 215.68624407860503 H 0.0 **** 0.06
6201 C 21.930955123228657 81.20455411194523 121.7606445761716 C 0.0 **** -0.24
6202 H 22.516797153486465 80.66610454382216 121.01676132747478 H 0.0 **** 0.06
6203 H 22.6019579448527 81.71749555305614 122.44973559314967 H 0.0 **** 0.06
6204 H 21.311656901360948 80.49857710463714 122.3142042555249 H 0.0 **** 0.06
6205 H 21.293544801965012 81.93472038573903 121.26236912521814 H 0.0 **** 0.06
6206 C 35.11274406780757 35.011940705786714 86.12951206657567 C 0.0 **** -0.24
6207 H 34.328961631453495 35.638010306767484 86.55575622368855 H 0.0 **** 0.06
6208 H 34.790361232928035 34.638388374069564 85.15708360307445 H 0.0 **** 0.06
6209 H 35.30855738674444 34.171645671919464 86.79610305688783 H 0.0 **** 0.06
6210 H 36.0228285791128 35.6007110443943 86.01007662209736 H 0.0 **** 0.06
6211 C 77.18867384816976 28.36113890382427 125.22600291781423 C 0.0 **** -0.24
6212 H 76.13995855622441 28.63581101485221 125.10842476943638 H 0.0 **** 0.06
6213 H 77.31657230573641 27.305687074987134 124.98529030657131 H 0.0 **** 0.06
6214 H 77.4961714753038 28.538666980415826 126.25714895443936 H 0.0 **** 0.06
6215 H 77.79959046906485 28.964122549494988 124.5554183111201 H 0.0 **** 0.06
6216 C 100.39519499810557 88.7886235852719 64.04056316108358 C 0.0 **** -0.24
6217 H 99.56489068326776 88.40399527624164 63.44919362544459 H 0.0 **** 0.06
6218 H 100.41344923617437 89.87686461527893 63.975652513721684 H 0.0 **** 0.06
6219 H 101.33217506886233 88.38565624651089 63.65748250381253 H 0.0 **** 0.06
6220 H 100.26873815956525 88.48883171775252 65.08089370552204 H 0.0 **** 0.06
6221 C 138.54694507060105 15.8970672173524 212.13482950915773 C 0.0 **** -0.24
6222 H 138.6335751838136 16.95767943759064 212.3684575457649 H 0.0 **** 0.06
6223 H 138.8223214660424 15.730835892640243 211.0937617350144 H 0.0 **** 0.06
6224 H 137.51816130129163 15.573527793766289 212.2947368049021 H 0.0 **** 0.06
6225 H 139.21167648055825 15.326127339368469 212.78325911086597 H 0.0 **** 0.06
6226 C 86.29023798101753 15.352858092974827 43.03928127832245 C 0.0 **** -0.24
6227 H 85.29946842228992 15.168221482095987 42.62494068405192 H 0.0 **** 0.06
6228 H 86.19951550126319 15.953811968838579 43.94388174273797 H 0.0 **** 0.06
6229 H 86.89638843591075 15.886603437619726 42.30750011927208 H 0.0 **** 0.06
6230 H 86.7655493661482 14.40141131773845 43.28051411008323 H 0.0 **** 0.06
6231 C 23.028148268861003 155.5066724843341 193.16503579265682 C 0.0 **** -0.24
6232 H 22.11457551025427 154.98244635836255 193.44496956154595 H 0.0 **** 0.06
6233 H 22.77361417426394 156.4054687421032 192.60421870837325 H 0.0 **** 0.06
6234 H 23.64619674558287 154.8548336850115 192.54664884523618 H 0.0 **** 0.06
6235 H 23.578351099061194 155.78270932925938 194.06498559951288 H 0.0 **** 0.06
6236 C 13.804052073194114 173.27949327640619 130.91856189816633 C 0.0 **** -0.24
6237 H 13.426126650862415 172.25751166650724 130.90372644962684 H 0.0 **** 0.06
6238 H 13.36694968287766 173.81568027351722 131.76171500657176 H 0.0 **** 0.06
6239 H 13.533509517437764 173.78040885104383 129.98863477072598 H 0.0 **** 0.06
6240 H 14.889622441598576 173.26437231455654 131.02017136574068 H 0.0 **** 0.06
6241 C 61.506988250675235 122.37595013841745 77.87503678983137 C 0.0 **** -0.24
6242 H 61.32779507756155 121.52669493226712 77.2165669588777 H 0.0 **** 0.06
6243 H 61.969770422437804 122.02817029016212 78.79834278840195 H 0.0 **** 0.06
6244 H 60.55889613521653 122.86406176134845 78.10385668482485 H 0.0 **** 0.06
6245 H 62.170280420333796 123.0856359135776 77.37966243625425 H 0.0 **** 0.06
6246 C 191.7741724186523 183.80249671834918 103.36168727817928 C 0.0 **** -0.24
6247 H 192.85995212747093 183.89732574680002 103.38822074033764 H 0.0 **** 0.06
6248 H 191.45474543140784 183.07087630991245 104.1036738751575 H 0.0 **** 0.06
6249 H 191.461787576289 183.47537218455085 102.36981914616565 H 0.0 **** 0.06
6250 H 191.32067995556562 184.76856371340205 103.58465205791894 H 0.0 **** 0.06
6251 C 133.99896008194366 156.465721579385 36.522363137874606 C 0.0 **** -0.24
6252 H 134.25287615929545 157.01147352001146 37.43155651445039 H 0.0 **** 0.06
6253 H 134.49519409780498 156.92965149998219 35.67031210875717 H 0.0 **** 0.06
6254 H 132.91935810006595 156.49180461049303 36.37404127546472 H 0.0 **** 0.06
6255 H 134.32752241140332 155.43091115260722 36.616423251620915 H 0.0 **** 0.06
6256 C 196.65282324583353 62.30708992719423 41.85122889598921 C 0.0 **** -0.24
6257 H 196.0004122177915 62.855609228515505 42.52966057336471 H 0.0 **** 0.06
6258 H 196.72022574374 61.26754087980959 42.17173445768884 H 0.0 **** 0.06
6259 H 197.64568879515426 62.75530647834995 41.859293503697415 H 0.0 **** 0.06
6260 H 196.24322165701912 62.34923370512104 40.84114345097487 H 0.0 **** 0.06
6261 C 130.4613955661202 28.480740350149617 119.53383121415891 C 0.0 **** -0.24
6262 H 130.63915069659106 28.800354061119023 118.50722451307922 H 0.0 **** 0.06
6263 H 131.0960910638243 27.624688146123745 119.76319858047276 H 0.0 **** 0.06
6264 H 129.4140103901497 28.198548320343164 119.6493176637565 H 0.0 **** 0.06
6265 H 130.6941826680873 29.299520346453548 120.21441523842958 H 0.0 **** 0.06
6266 C 121.13256301589637 113.53931620871766 1.0236291196326874 C 0.0 **** -0.24
6267 H 120.24823916406346 114.16841353881337 0.9192786485539273 H 0.0 **** 0.06
6268 H 121.36819879882411 113.08239368005776 0.0619910726889259 H 0.0 **** 0.06
6269 H 120.93764082197343 112.75957257124863 1.7599784501435067 H 0.0 **** 0.06
6270 H 121.97456364890054 114.14842688450086 1.3530896825106993 H 0.0 **** 0.06
6271 C 35.42277126277662 132.4936334179328 127.3061302239672 C 0.0 **** -0.24
6272 H 35.32285909944686 132.14688139915745 126.27782057900687 H 0.0 **** 0.06
6273 H 34.91584442979199 133.4525883992992 127.41744815121508 H 0.0 **** 0.06
6274 H 36.47816896694185 132.6093295802802 127.54997484072776 H 0.0 **** 0.06
6275 H 34.97231880241293 131.76481282936857 127.98002878413315 H 0.0 **** 0.06
6276 C 48.52764102999447 162.21193852040653 55.1131695043466 C 0.0 **** -0.24
6277 H 47.79311882728052 162.56197686805376 54.38785065987531 H 0.0 **** 0.06
6278 H 48.0894157319791 161.41947467619025 55.71932523487128 H 0.0 **** 0.06
6279 H 48.82407756062332 163.04005700085042 55.75763464487923 H 0.0 **** 0.06
6280 H 49.40177732733565 161.8282290111536 54.58902367683646 H 0.0 **** 0.06
6281 C 11.208494910120692 203.0061670562341 65.96335774362177 C 0.0 **** -0.24
6282 H 12.215234253190147 203.20549356720863 65.59620930911137 H 0.0 **** 0.06
6283 H 10.690442125690538 202.3486270179393 65.26407770327228 H 0.0 **** 0.06
6284 H 10.661921042488359 203.94476604207054 66.05270023480682 H 0.0 **** 0.06
6285 H 11.2671452374002 202.5239516196604 66.9394097697793 H 0.0 **** 0.06
6286 C 159.26265935100685 197.43182846435099 174.6047341220461 C 0.0 **** -0.24
6287 H 159.78171221980898 196.47308374617057 174.6203172566029 H 0.0 **** 0.06
6288 H 159.70894233914953 198.09898633280545 175.34244816982152 H 0.0 **** 0.06
6289 H 158.2100476678711 197.27799011754212 174.84176690422169 H 0.0 **** 0.06
6290 H 159.35098666277378 197.87574700157688 173.61278413979028 H 0.0 **** 0.06
6291 C 188.2784925742361 0.7582238147355724 49.71942326234756 C 0.0 **** -0.24
6292 H 187.70764598246998 0.34730789526304306 48.88682287217267 H 0.0 **** 0.06
6293 H 187.73260835478843 0.5939819714951682 50.64938250937655 H 0.0 **** 0.06
6294 H 188.4229299130013 1.8273484010390746 49.5667255361015 H 0.0 **** 0.06
6295 H 189.248376958515 0.26467402245299354 49.77491206762858 H 0.0 **** 0.06
6296 C 201.01330587658524 8.898780700952159 156.72425177412327 C 0.0 **** -0.24
6297 H 200.6206997523231 7.927052540402741 156.4253555653736 H 0.0 **** 0.06
6298 H 200.854520316208 9.040752430335118 157.792987148951 H 0.0 **** 0.06
6299 H 200.49676561230524 9.68404631917582 156.17234399186003 H 0.0 **** 0.06
6300 H 202.0806582960435 8.942959323203183 156.50506870485532 H 0.0 **** 0.06
6301 C 153.01808386600692 14.146117013695232 176.36581500938252 C 0.0 **** -0.24
6302 H 153.29696462069643 13.327349633395954 175.70388252952725 H 0.0 **** 0.06
6303 H 152.7241612614548 13.74547474599592 177.3359595410029 H 0.0 **** 0.06
6304 H 152.18329377015192 14.69741352348126 175.9311728368192 H 0.0 **** 0.06
6305 H 153.86882939069392 14.81648956032248 176.49249119678845 H 0.0 **** 0.06
6306 C 151.54404738889144 212.83393153321362 146.3006093226233 C 0.0 **** -0.24
6307 H 150.46975163555624 212.95542050669764 146.4444885263248 H 0.0 **** 0.06
6308 H 152.06669873035156 213.1257962711483 147.21138079915977 H 0.0 **** 0.06
6309 H 151.87271938034365 213.46288755213249 145.4742563972365 H 0.0 **** 0.06
6310 H 151.76434557888302 211.79054019228724 146.07313543831611 H 0.0 **** 0.06
6311 C 135.93617122642246 110.64803056642756 83.16268711720473 C 0.0 **** -0.24
6312 H 136.6976498296009 111.30814019137438 82.74730806483045 H 0.0 **** 0.06
6313 H 135.66119124281232 109.90006671774125 82.41943869586844 H 0.0 **** 0.06
6314 H 135.05736429304568 111.23318754891739 83.43306613170664 H 0.0 **** 0.06
6315 H 136.3304091601832 110.1529319541878 84.04974457914703 H 0.0 **** 0.06
6316 C 92.68757700210152 131.47330126297226 74.39791926206239 C 0.0 **** -0.24
6317 H 92.54055767685837 132.53866338361524 74.57571129950016 H 0.0 **** 0.06
6318 H 91.95602446760854 131.12158262232958 73.66980248607918 H 0.0 **** 0.06
6319 H 92.55938674019923 130.9280127508752 75.33401053155141 H 0.0 **** 0.06
6320 H 93.69366639936707 131.3044781034481 74.01423319339155 H 0.0 **** 0.06
6321 C 77.76964063418131 152.51606527407677 92.78775569028954 C 0.0 **** -0.24
6322 H 78.14485550584106 151.76604424405548 93.48397432705622 H 0.0 **** 0.06
6323 H 78.48074943087568 153.34011855289395 92.72411905592662 H 0.0 **** 0.06
6324 H 76.80897599676996 152.89105365703585 93.14197076377855 H 0.0 **** 0.06
6325 H 77.64392093147069 152.06586759557138 91.80285886822952 H 0.0 **** 0.06
6326 C 20.309561286858894 187.66614329993763 85.66361258788169 C 0.0 **** -0.24
6327 H 19.935065974721283 188.45835876578815 86.31228281409346 H 0.0 **** 0.06
6328 H 20.903740122645132 188.104484170219 84.86083805214128 H 0.0 **** 0.06
6329 H 19.46862679002578 187.11935753733619 85.23643622222926 H 0.0 **** 0.06
6330 H 20.929131349444674 186.98359806879978 86.24407279958092 H 0.0 **** 0.06
6331 C 208.59418864048638 124.94963616755892 104.54467360621123 C 0.0 **** -0.24
6332 H 209.37941144570135 125.29662908003642 105.21559847894645 H 0.0 **** 0.06
6333 H 208.0706951228728 124.11027933335386 105.00176087166471 H 0.0 **** 0.06
6334 H 209.03746433673237 124.63129937602604 103.60117560433775 H 0.0 **** 0.06
6335 H 207.8900251233936 125.76083180058858 104.35994266336547 H 0.0 **** 0.06
6336 C 90.89424755989853 52.73854762335924 63.99987085597522 C 0.0 **** -0.24
6337 H 90.16702412279619 52.38647358528202 63.26755118681089 H 0.0 **** 0.06
6338 H 90.43238288016295 52.76002075529787 64.98689114804478 H 0.0 **** 0.06
6339 H 91.22378758159539 53.74249853111263 63.73047133422094 H 0.0 **** 0.06
6340 H 91.75071118508794 52.065724310051166 64.01251819887042 H 0.0 **** 0.06
6341 C 160.06999215933018 31.92548749162981 56.68166820378467 C 0.0 **** -0.24
6342 H 159.2339089563879 32.38521727606047 57.208704768551456 H 0.0 **** 0.06
6343 H 160.63086738623662 32.69519535782439 56.150211770461794 H 0.0 **** 0.06
6344 H 159.6913954247131 31.193996009013574 55.968319869422785 H 0.0 **** 0.06
6345 H 160.72345803540063 31.42995611050111 57.39966899462496 H 0.0 **** 0.06
6346 C 171.05535448937636 24.00134099240927 62.123701659590864 C 0.0 **** -0.24
6347 H 170.45663852643804 23.090770464422505 62.08700478990866 H 0.0 **** 0.06
6348 H 170.51158640777734 24.812841975727068 61.63985812300896 H 0.0 **** 0.06
6349 H 171.9998477610265 23.83583997390943 61.60588798591735 H 0.0 **** 0.06
6350 H 171.25186638499216 24.263914779861736 63.16340701460996 H 0.0 **** 0.06
6351 C 64.01805563815238 84.27673077369975 3.3699219940028016 C 0.0 **** -0.24
6352 H 64.23166409119578 85.20867942177107 3.8933188632945814 H 0.0 **** 0.06
6353 H 64.40478095633867 83.43773766159667 3.9492433550205277 H 0.0 **** 0.06
6354 H 64.49461779653255 84.29353327610691 2.3896228934830503 H 0.0 **** 0.06
6355 H 62.940364092575734 84.16851750483049 3.248493192543087 H 0.0 **** 0.06
6356 C 68.53154322435603 89.39372919852146 75.70435513011724 C 0.0 **** -0.24
6357 H 68.01301614229281 89.31750112054941 74.74843406218322 H 0.0 **** 0.06
6358 H 68.7488884289782 90.44035327747328 75.91712080668584 H 0.0 **** 0.06
6359 H 69.46388324957738 88.83002666576111 75.6575396693798 H 0.0 **** 0.06
6360 H 67.89902564741223 88.98533256663647 76.49320737256015 H 0.0 **** 0.06
6361 C 124.8120209832749 138.65526784441977 84.88889161738099 C 0.0 **** -0.24
6362 H 124.62996334005713 139.53973083514785 85.49992875277142 H 0.0 **** 0.06
6363 H 124.46853929729396 137.76950094246502 85.42335814149742 H 0.0 **** 0.06
6364 H 125.87921860212113 138.5671856899806 84.68689928499835 H 0.0 **** 0.06
6365 H 124.2699495655199 138.74596304921442 83.94804780453929 H 0.0 **** 0.06
6366 C 148.06540637930493 122.88154496747931 52.039098963542415 C 0.0 **** -0.24
6367 H 147.8744753111709 123.92108115708378 52.307914877440794 H 0.0 **** 0.06
6368 H 149.13754027890946 122.731661857818 51.91186653141608 H 0.0 **** 0.06
6369 H 147.55097810569805 122.64654719086262 51.10744144673953 H 0.0 **** 0.06
6370 H 147.69839299598073 122.2283893024527 52.831760313766324 H 0.0 **** 0.06
6371 C 80.82673729127214 208.3830363389822 73.85270108201026 C 0.0 **** -0.24
6372 H 80.96346212072535 207.34656619948677 73.54567650190874 H 0.0 **** 0.06
6373 H 80.07534264852734 208.8540781534573 73.21848357455572 H 0.0 **** 0.06
6374 H 81.77198224469828 208.91818982247096 73.75607871080653 H 0.0 **** 0.06
6375 H 80.49687562593971 208.41382604097913 74.89104081895935 H 0.0 **** 0.06
6376 C 148.81725141663264 4.978987741215178 59.72834757879187 C 0.0 **** -0.24
6377 H 148.17542836910326 5.239230140067605 58.88611291924167 H 0.0 **** 0.06
6378 H 149.85278170961163 5.209412920932522 59.47809293931243 H 0.0 **** 0.06
6379 H 148.72221338329808 3.9152975948185826 59.94200185019815 H 0.0 **** 0.06
6380 H 148.51807910190786 5.554431696986285 60.604756916497934 H 0.0 **** 0.06
6381 C 30.680793645599266 25.12526221579874 167.57114195109534 C 0.0 **** -0.24
6382 H 30.209766062209795 24.326412457127475 168.14385585364596 H 0.0 **** 0.06
6383 H 31.761345763543716 24.980496933246215 167.56723325879875 H 0.0 **** 0.06
6384 H 30.445614030586896 26.087019355943724 168.0272591427962 H 0.0 **** 0.06
6385 H 30.30742118889738 25.107194556536086 166.54724366273706 H 0.0 **** 0.06
6386 C 108.31999826724599 198.2137976968992 148.06715415076525 C 0.0 **** -0.24
6387 H 108.14835869978673 197.97766915035828 147.01740928202997 H 0.0 **** 0.06
6388 H 107.64265510627796 199.01077385373262 148.37549552045982 H 0.0 **** 0.06
6389 H 109.35119787946 198.54071177010533 148.20165950064938 H 0.0 **** 0.06
6390 H 108.13871761524688 197.3261419753648 148.67371724910362 H 0.0 **** 0.06
6391 C 162.83522252340902 197.1804584839333 210.86827183009157 C 0.0 **** -0.24
6392 H 163.2504044771033 198.1427334072921 210.56996990112916 H 0.0 **** 0.06
6393 H 163.61830645984503 196.42125865798036 210.83620389717527 H 0.0 **** 0.06
6394 H 162.03233836527698 196.90330338712226 210.18503891225828 H 0.0 **** 0.06
6395 H 162.44073638322027 197.25307314767673 211.8816493154274 H 0.0 **** 0.06
6396 C 146.51870283650288 162.45538468029144 204.93290274449345 C 0.0 **** -0.24
6397 H 146.94271635409916 163.21182866709654 205.5929081686398 H 0.0 **** 0.06
6398 H 145.5675406877972 162.11134652889172 205.3385410632392 H 0.0 **** 0.06
6399 H 147.2067018817737 161.61337128686995 204.85643120121523 H 0.0 **** 0.06
6400 H 146.35857608092567 162.88430223067172 203.94371555605088 H 0.0 **** 0.06
6401 C 181.03368448058114 214.3935382400812 10.876646572794897 C 0.0 **** -0.24
6402 H 180.06867990814783 213.95288648969506 10.625357189055876 H 0.0 **** 0.06
6403 H 181.22992964258964 215.2385085164159 10.216175365669415 H 0.0 **** 0.06
6404 H 181.81782673300745 213.64590765487077 10.75509583771833 H 0.0 **** 0.06
6405 H 181.01699798881856 214.73682646992904 11.91109806552447 H 0.0 **** 0.06
6406 C 171.50300971934828 8.70744062418484 68.16262997347587 C 0.0 **** -0.24
6407 H 172.43812933703504 8.245196556455568 67.84612268699911 H 0.0 **** 0.06
6408 H 171.0295256244443 8.083962203347426 68.92151179520165 H 0.0 **** 0.06
6409 H 170.83823638033596 8.806019829897991 67.30551058041097 H 0.0 **** 0.06
6410 H 171.7082765333603 9.693500161204554 68.57944679482893 H 0.0 **** 0.06
6411 C 90.06724932901938 125.20821111866081 172.49092624112086 C 0.0 **** -0.24
6412 H 89.1455999891179 125.7689430703295 172.33353082105458 H 0.0 **** 0.06
6413 H 90.89440579538694 125.72460397449726 172.00369145408297 H 0.0 **** 0.06
6414 H 89.96132951399403 124.20954862998815 172.06572113270204 H 0.0 **** 0.06
6415 H 90.26535813126759 125.12836466313678 173.55942873031444 H 0.0 **** 0.06
6416 C 170.51305373426948 15.638726725927938 151.52697686598418 C 0.0 **** -0.24
6417 H 170.92872662067265 16.303776492692293 152.28412612477945 H 0.0 **** 0.06
6418 H 169.45708498091693 15.466042916203662 151.73589895157318 H 0.0 **** 0.06
6419 H 171.04731226955755 14.688940660390728 151.54430831601906 H 0.0 **** 0.06
6420 H 170.6195748524353 16.0974721870827 150.54347698990472 H 0.0 **** 0.06
6421 C 210.06795372231176 76.76991875100275 113.63949508214576 C 0.0 **** -0.24
6422 H 209.3054668522679 76.8457858994364 114.41485570098767 H 0.0 **** 0.06
6423 H 211.0483302216427 76.96658963618567 114.07325148470743 H 0.0 **** 0.06
6424 H 209.86415445064648 77.50131728486635 112.85678044995852 H 0.0 **** 0.06
6425 H 210.05299841118412 75.767431960259 113.21202027946286 H 0.0 **** 0.06
6426 C 48.66998796696603 31.085928412461186 70.47324015320561 C 0.0 **** -0.24
6427 H 48.53726936943053 31.981999749850516 71.07901491248936 H 0.0 **** 0.06
6428 H 47.756292150250715 30.888978751510706 69.91050757068865 H 0.0 **** 0.06
6429 H 48.88656334166137 30.23822448084998 71.1229372209022 H 0.0 **** 0.06
6430 H 49.49847574485102 31.23483499945874 69.78076346285513 H 0.0 **** 0.06
6431 C 199.81838429108382 100.00812343303357 174.26986389843293 C 0.0 **** -0.24
6432 H 200.73947120740974 99.46673157102447 174.05761438777245 H 0.0 **** 0.06
6433 H 199.02441228701457 99.2968062332535 174.50040773079044 H 0.0 **** 0.06
6434 H 199.53574221981322 100.5994989664299 173.39927009805157 H 0.0 **** 0.06
6435 H 199.9721200855713 100.6683911172916 175.1234498805594 H 0.0 **** 0.06
6436 C 169.46042676355603 48.36381938736338 190.5205439340029 C 0.0 **** -0.24
6437 H 169.4471097432472 49.33599471640122 191.01141346038474 H 0.0 **** 0.06
6438 H 170.4107473205822 47.86851476684831 190.72106903882707 H 0.0 **** 0.06
6439 H 169.340676784422 48.497953544198936 189.44514953238223 H 0.0 **** 0.06
6440 H 168.64421823369236 47.752185590314355 190.903313902466 H 0.0 **** 0.06
6441 C 169.71334266534097 116.13506067595013 101.76056438915079 C 0.0 **** -0.24
6442 H 170.44334470927149 115.71978928915594 102.45562757620026 H 0.0 **** 0.06
6443 H 168.709643879689 115.99856293738473 102.16561659039813 H 0.0 **** 0.06
6444 H 169.79210998075789 115.62249761079165 100.8016144645838 H 0.0 **** 0.06
6445 H 169.90833988283094 117.19832046204137 101.62237306774954 H 0.0 **** 0.06
6446 C 153.8335624879408 29.258235343363026 101.18405962338802 C 0.0 **** -0.24
6447 H 154.50014558352177 28.488743241563995 100.79538751389931 H 0.0 **** 0.06
6448 H 153.87223454406399 29.2560126464504 102.27371125619267 H 0.0 **** 0.06
6449 H 152.8132898411157 29.054423441523298 100.85604498173076 H 0.0 **** 0.06
6450 H 154.14639572821926 30.23269742121377 100.81140411364605 H 0.0 **** 0.06
6451 C 174.14091387399452 127.85193477496703 75.4007769739785 C 0.0 **** -0.24
6452 H 175.05033604592742 127.84521751666317 74.80036101843915 H 0.0 **** 0.06
6453 H 173.36740094288797 127.27498351549526 74.89452198301966 H 0.0 **** 0.06
6454 H 173.80120013440944 128.87865874834068 75.534045804445 H 0.0 **** 0.06
6455 H 174.3461298540626 127.40753675933117 76.37566413369676 H 0.0 **** 0.06
6456 C 210.58443923979044 167.5242011252791 87.28977854715022 C 0.0 **** -0.24
6457 H 210.63203812204432 168.612640162426 87.26575905534956 H 0.0 **** 0.06
6458 H 210.90193636551004 167.16853251440511 88.2701328484553 H 0.0 **** 0.06
6459 H 211.24251700255616 167.11575465638762 86.52250070603388 H 0.0 **** 0.06
6460 H 209.5605823540512 167.2015228018284 87.09904070263464 H 0.0 **** 0.06
6461 C 143.2678578671737 59.443762654241056 215.20672971863343 C 0.0 **** -0.24
6462 H 143.95342039131202 58.97016487377765 215.90948380462194 H 0.0 **** 0.06
6463 H 142.43255938955343 59.88094587940431 215.75344391416263 H 0.0 **** 0.06
6464 H 142.89263971492505 58.69849931974987 214.50615850985793 H 0.0 **** 0.06
6465 H 143.7933817752641 60.225909272642056 214.6585076538247 H 0.0 **** 0.06
6466 C 150.06513098709934 137.4358316362065 119.29990748050132 C 0.0 **** -0.24
6467 H 149.1687571480092 137.34810340144872 119.91358070671252 H 0.0 **** 0.06
6468 H 150.39176255754774 138.47622312595502 119.28150844260419 H 0.0 **** 0.06
6469 H 149.84404637057412 137.1059005105597 118.28566828153923 H 0.0 **** 0.06
6470 H 150.85529676792862 136.81417846755647 119.72096984342527 H 0.0 **** 0.06
6471 C 201.76751006857862 90.88041396089245 97.07037974779668 C 0.0 **** -0.24
6472 H 200.95573021369992 91.49617681469458 97.45877481339714 H 0.0 **** 0.06
6473 H 202.52393682816452 91.52117306096379 96.61613258321886 H 0.0 **** 0.06
6474 H 201.3749485312773 90.1937456631447 96.32102054892171 H 0.0 **** 0.06
6475 H 202.21397505135448 90.31231398937531 97.8864983534195 H 0.0 **** 0.06
6476 C 204.24839793114754 155.0872477498832 1.1525596669896743 C 0.0 **** -0.24
6477 H 204.7055078334494 154.14405630363166 1.4521570188658472 H 0.0 **** 0.06
6478 H 204.94532276840758 155.90437918941217 1.3390780843330674 H 0.0 **** 0.06
6479 H 203.33691335147532 155.24699996468786 1.7291030202013928 H 0.0 **** 0.06
6480 H 204.00494502482232 155.05208343345305 0.09003469645591622 H 0.0 **** 0.06
6481 C 138.8343941952662 102.04178613454752 111.30089884200244 C 0.0 **** -0.24
6482 H 138.10782323716734 101.85362238254112 112.09171626222017 H 0.0 **** 0.06
6483 H 139.72545967980147 101.43926326298924 111.4762802061393 H 0.0 **** 0.06
6484 H 139.10290775591358 103.09770546717175 111.29826256865992 H 0.0 **** 0.06
6485 H 138.39882724510176 101.77499335443667 110.33720013044713 H 0.0 **** 0.06
6486 C 186.32664053018794 49.01886761425301 36.9895848567503 C 0.0 **** -0.24
6487 H 186.24849035334148 48.534710841020356 36.01620625446037 H 0.0 **** 0.06
6488 H 187.30003632415225 48.79507057915768 37.42898068657428 H 0.0 **** 0.06
6489 H 185.53813625765946 48.649528182734215 37.64452494267499 H 0.0 **** 0.06
6490 H 186.22334119197177 50.097461626038566 36.867948704743156 H 0.0 **** 0.06
6491 C 15.209582768774027 52.96965642186471 73.27130903557823 C 0.0 **** -0.24
6492 H 14.731547562075235 53.642142641545675 73.98339944943488 H 0.0 **** 0.06
6493 H 15.596049789627884 53.547152724804505 72.43026953936022 H 0.0 **** 0.06
6494 H 14.48021773676119 52.244840185580614 72.90939438549613 H 0.0 **** 0.06
6495 H 16.03084005997816 52.44651155810509 73.76127337268288 H 0.0 **** 0.06
6496 C 29.003151210493456 116.17786266295276 9.340983045585403 C 0.0 **** -0.24
6497 H 30.018486607302975 116.30357032278239 8.967186677764232 H 0.0 **** 0.06
6498 H 28.600927756898727 117.14729472129373 9.635057719123267 H 0.0 **** 0.06
6499 H 29.013389220670433 115.51229559959937 10.20394179231559 H 0.0 **** 0.06
6500 H 28.379028835122767 115.7473190463195 8.558424691404412 H 0.0 **** 0.06
6501 C 33.32589120372269 37.086516733104375 17.41842382392923 C 0.0 **** -0.24
6502 H 32.56319642405009 36.53644525929178 17.969005490794103 H 0.0 **** 0.06
6503 H 33.121251435390064 37.02089558701151 16.349623761199467 H 0.0 **** 0.06
6504 H 34.305427014432084 36.65560507232331 17.62718656940234 H 0.0 **** 0.06
6505 H 33.31518743858632 38.13127166353853 17.728460427307624 H 0.0 **** 0.06
6506 C 124.26968982989659 91.08823072863079 60.58260604949447 C 0.0 **** -0.24
6507 H 124.01231273483351 90.12911638890027 60.1324395662611 H 0.0 **** 0.06
6508 H 123.45805170823714 91.41075405470501 61.236093179766556 H 0.0 **** 0.06
6509 H 124.42169713664104 91.82870202099222 59.79834260336804 H 0.0 **** 0.06
6510 H 125.18472297382122 90.98146344281035 61.164877654901545 H 0.0 **** 0.06
6511 C 122.2434820362235 119.08998616033197 198.24271211365533 C 0.0 **** -0.24
6512 H 122.56408410253431 119.60768843906489 199.1474683372162 H 0.0 **** 0.06
6513 H 121.97164874497321 119.82231648249568 197.48283509111076 H 0.0 **** 0.06
6514 H 121.38173680093672 118.4628979082349 198.46942910832473 H 0.0 **** 0.06
6515 H 123.05882833093125 118.46812341560549 197.8731687705208 H 0.0 **** 0.06
6516 C 120.16110498168159 50.28634432959848 0.936861275184242 C 0.0 **** -0.24
6517 H 120.75971984690024 51.1555097384491 1.2079680033157274 H 0.0 **** 0.06
6518 H 119.17436270444152 50.614757445505234 0.6064695624326077 H 0.0 **** 0.06
6519 H 120.05574031418989 49.633167210277236 1.8020965293243307 H 0.0 **** 0.06
6520 H 120.65287925781983 49.743812159490346 0.12931248653910643 H 0.0 **** 0.06
6521 C 29.89373650145643 209.97209750283804 142.87761561749522 C 0.0 **** -0.24
6522 H 29.223618471497815 209.77082125040354 142.04244927756946 H 0.0 **** 0.06
6523 H 30.88444904898313 210.21878928884047 142.49566673334118 H 0.0 **** 0.06
6524 H 29.958883791909358 209.0878830465054 143.5118038902733 H 0.0 **** 0.06
6525 H 29.508820911940745 210.80924522909925 143.45893290585656 H 0.0 **** 0.06
6526 C 56.978810297575734 122.18604055862635 157.61727817701745 C 0.0 **** -0.24
6527 H 57.27503854869417 122.92973441970638 158.35780867590609 H 0.0 **** 0.06
6528 H 57.46158119750805 121.23532933087581 157.84522020780162 H 0.0 **** 0.06
6529 H 57.28389065245756 122.52058535418153 156.62579298177474 H 0.0 **** 0.06
6530 H 55.89634569346333 122.06019375995534 157.64285361015044 H 0.0 **** 0.06
6531 C 138.33125369899784 107.08863371858344 168.7405088735551 C 0.0 **** -0.24
6532 H 137.99188979513548 106.543946138323 169.6217113031152 H 0.0 **** 0.06
6533 H 137.5631167573835 107.04278072322667 167.96750350161852 H 0.0 **** 0.06
6534 H 139.25034552445135 106.63668125254459 168.36694317794252 H 0.0 **** 0.06
6535 H 138.5184984586066 108.12814570323955 169.0067481339014 H 0.0 **** 0.06
6536 C 55.06353992628323 80.56152771145332 137.29092650999388 C 0.0 **** -0.24
6537 H 54.23176330948081 81.03323344325452 137.81656378247163 H 0.0 **** 0.06
6538 H 55.873690202256114 81.281105985912 137.17401727651622 H 0.0 **** 0.06
6539 H 54.72868357147479 80.22642873033857 136.30912916059293 H 0.0 **** 0.06
6540 H 55.41693930850482 79.70615537739928 137.8659536122246 H 0.0 **** 0.06
6541 C 17.84966499723265 203.91267016322172 8.032848079279702 C 0.0 **** -0.24
6542 H 17.9370035198815 204.7015757865513 7.2853789850020405 H 0.0 **** 0.06
6543 H 17.17968137247209 203.13624022968062 7.663859415978862 H 0.0 **** 0.06
6544 H 17.448055911013057 204.3308322293645 8.956469096793697 H 0.0 **** 0.06
6545 H 18.833154967668662 203.48377454117747 8.224509649027524 H 0.0 **** 0.06
6546 C 213.63071824322518 135.91303284125877 215.3476741504423 C 0.0 **** -0.24
6547 H 213.4183242811685 135.96650333771373 214.27975427845442 H 0.0 **** 0.06
6548 H 213.0573449765999 135.09903697326575 215.7912448445237 H 0.0 **** 0.06
6549 H 213.35172375967983 136.85505165404942 215.82052484929875 H 0.0 **** 0.06
6550 H 214.69558852732314 135.7323763482412 215.4971019256153 H 0.0 **** 0.06
6551 C 11.06504655394005 159.37898627198325 119.86216162969059 C 0.0 **** -0.24
6552 H 12.030756372356976 159.53759900284857 120.3406547448608 H 0.0 **** 0.06
6553 H 10.26792555888295 159.68804693244238 120.53917845657192 H 0.0 **** 0.06
6554 H 10.948272348219092 158.32215110813524 119.62262592295652 H 0.0 **** 0.06
6555 H 11.011247234598386 159.9671777766718 118.94584152702312 H 0.0 **** 0.06
6556 C 85.50365858843003 9.841121624785416 191.73686457606573 C 0.0 **** -0.24
6557 H 85.34160766292206 8.763624554874653 191.6875317724428 H 0.0 **** 0.06
6558 H 86.22180258373294 10.135661478403335 190.97092356589695 H 0.0 **** 0.06
6559 H 85.8911851015477 10.105505979016456 192.72073969581032 H 0.0 **** 0.06
6560 H 84.55840048432236 10.35775176951529 191.56702180595568 H 0.0 **** 0.06
6561 C 192.77101932684394 8.608583663511027 73.70562775437423 C 0.0 **** -0.24
6562 H 193.04874732805675 8.642258148842487 72.65167598146047 H 0.0 **** 0.06
6563 H 192.8390592458549 9.609276400203271 74.13083327055926 H 0.0 **** 0.06
6564 H 193.44935270122772 7.941213878187213 74.2370311192496 H 0.0 **** 0.06
6565 H 191.7499132385691 8.24023286864228 73.80048117864942 H 0.0 **** 0.06
6566 C 194.67694910047547 179.4933466990315 41.74309161152166 C 0.0 **** -0.24
6567 H 195.36760670545235 179.45176207922012 40.90016519219536 H 0.0 **** 0.06
6568 H 193.7747054708209 178.93204677310263 41.50106897759113 H 0.0 **** 0.06
6569 H 194.41474933149482 180.5313734931912 41.94655360960077 H 0.0 **** 0.06
6570 H 195.1512594171828 179.0582929857207 42.622930307529785 H 0.0 **** 0.06
6571 C 151.39355415976257 45.03224369179664 81.64750201306295 C 0.0 **** -0.24
6572 H 152.44017357760504 45.216670157400756 81.40333029967626 H 0.0 **** 0.06
6573 H 151.16918880171943 45.45587920177016 82.62667017303646 H 0.0 **** 0.06
6574 H 151.20797036922096 43.95892921324935 81.66311609439153 H 0.0 **** 0.06
6575 H 150.75930196265455 45.50041229274615 80.89526372970447 H 0.0 **** 0.06
6576 C 115.28321236067434 199.558282335719 37.073706689396886 C 0.0 **** -0.24
6577 H 114.79821299233971 199.87889018535657 37.99527618899825 H 0.0 **** 0.06
6578 H 115.90084942874101 200.36934591036362 36.68843086546883 H 0.0 **** 0.06
6579 H 114.52403382877644 199.2971684536783 36.336611288814794 H 0.0 **** 0.06
6580 H 115.90800180820638 198.6884943194279 37.27603831082786 H 0.0 **** 0.06
6581 C 150.17987263330053 167.2398747049026 142.9879234727107 C 0.0 **** -0.24
6582 H 149.50959864320203 166.44992230489524 142.6488923195522 H 0.0 **** 0.06
6583 H 149.78166886672085 167.6882651538117 143.89845403900796 H 0.0 **** 0.06
6584 H 150.26515857566284 168.00114347540642 142.2129465106475 H 0.0 **** 0.06
6585 H 151.1649571314279 166.8178404767222 143.1913683272054 H 0.0 **** 0.06
6586 C 92.80755572073178 62.526215321682116 31.35382967986442 C 0.0 **** -0.24
6587 H 92.67515257924663 61.64309932284772 31.97841407583303 H 0.0 **** 0.06
6588 H 93.87192054663802 62.693692145915236 31.18284078484521 H 0.0 **** 0.06
6589 H 92.3788715524662 63.39406825999549 31.854906816194955 H 0.0 **** 0.06
6590 H 92.30514097294781 62.37396118644887 30.39803720564305 H 0.0 **** 0.06
6591 C 5.812311107030538 58.092253143010225 44.20812380352953 C 0.0 **** -0.24
6592 H 5.855531203400034 59.18169741397736 44.22202900953772 H 0.0 **** 0.06
6593 H 6.7903265314392485 57.6869471075824 44.469156364463856 H 0.0 **** 0.06
6594 H 5.5335574423984895 57.752666079624646 43.21088805039942 H 0.0 **** 0.06
6595 H 5.0719608452195715 57.74815073526361 44.92991681363726 H 0.0 **** 0.06
6596 C 133.62885727290893 65.49844950111827 163.64001453817605 C 0.0 **** -0.24
6597 H 133.6859381580761 65.14258420104977 164.66853813615398 H 0.0 **** 0.06
6598 H 132.58599711835825 65.66683100390122 163.37132046623884 H 0.0 **** 0.06
6599 H 134.0605543931074 64.7504867581614 162.9739556136217 H 0.0 **** 0.06
6600 H 134.1847987401485 66.43170810087378 163.54711342236348 H 0.0 **** 0.06
6601 C 125.94659408210198 180.55284575564596 192.64564060030318 C 0.0 **** -0.24
6602 H 125.82844264020606 179.98826680905586 193.57029187483857 H 0.0 **** 0.06
6603 H 125.1984222819403 181.34476768135636 192.60609614646796 H 0.0 **** 0.06
6604 H 125.81562280490247 179.88530253334886 191.79352692214707 H 0.0 **** 0.06
6605 H 126.94288190154482 180.9923073906828 192.61331157175294 H 0.0 **** 0.06
6606 C 77.83479367074985 82.22947207048658 176.96342024145224 C 0.0 **** -0.24
6607 H 76.97212738683017 81.80246088288844 176.45240315994965 H 0.0 **** 0.06
6608 H 78.55519038094799 82.58492079884174 176.2267779160026 H 0.0 **** 0.06
6609 H 78.29994627964903 81.46643328327447 177.587732663793 H 0.0 **** 0.06
6610 H 77.51139219164183 83.06225222693116 177.58795673512586 H 0.0 **** 0.06
6611 C 116.19662387739787 203.46172562154055 180.45213959397793 C 0.0 **** -0.24
6612 H 116.3993463326447 204.38099010333607 179.90218908387965 H 0.0 **** 0.06
6613 H 115.14650312661409 203.19270047435722 180.3350497648468 H 0.0 **** 0.06
6614 H 116.4171476794523 203.61408544947813 181.5081106410067 H 0.0 **** 0.06
6615 H 116.82268139659506 202.65959309700753 180.0621530282922 H 0.0 **** 0.06
6616 C 92.21098441311413 80.53930247565297 104.47776966350433 C 0.0 **** -0.24
6617 H 92.96282456419901 80.26364671529653 105.21718728820754 H 0.0 **** 0.06
6618 H 91.34457483943676 80.96662589325562 104.98254117957508 H 0.0 **** 0.06
6619 H 91.90745544005871 79.65291595698606 103.92073264617109 H 0.0 **** 0.06
6620 H 92.63057916843677 81.27480959093033 103.7909911902047 H 0.0 **** 0.06
6621 C 138.23400518348717 108.61111315772193 73.13359735411137 C 0.0 **** -0.24
6622 H 137.83023213963628 108.31613642673814 72.16427582863264 H 0.0 **** 0.06
6623 H 139.31731205847564 108.49323885756972 73.1263869159772 H 0.0 **** 0.06
6624 H 137.80425817069 107.98009985808629 73.9117861891794 H 0.0 **** 0.06
6625 H 137.9819514998802 109.65281481031586 73.32989490639346 H 0.0 **** 0.06
6626 C 198.9770243142272 18.03984530965394 65.28503671503807 C 0.0 **** -0.24
6627 H 199.81128856640058 18.656357905480093 64.9496779206375 H 0.0 **** 0.06
6628 H 199.35960901807726 17.177560033602447 65.83220506577192 H 0.0 **** 0.06
6629 H 198.4069794026935 17.6987884356584 64.42115527928553 H 0.0 **** 0.06
6630 H 198.33113340585336 18.62695051833333 65.93740895091634 H 0.0 **** 0.06
6631 C 83.4934960092743 67.12182190651312 114.9184218563497 C 0.0 **** -0.24
6632 H 84.41837342501468 66.96041864604234 114.36618290312462 H 0.0 **** 0.06
6633 H 83.68946287684896 67.76700429930698 115.77567667728799 H 0.0 **** 0.06
6634 H 83.10545005912907 66.16393667903719 115.26442527223988 H 0.0 **** 0.06
6635 H 82.76026446661568 67.59671579013424 114.26696469625993 H 0.0 **** 0.06
6636 C 110.43942998105452 113.81143629102168 110.21068197285325 C 0.0 **** -0.24
6637 H 110.72308063372115 112.80150400206706 109.91710372039097 H 0.0 **** 0.06
6638 H 109.54105327322632 114.10840659387496 109.66841996297819 H 0.0 **** 0.06
6639 H 111.25046502974858 114.50000393072482 109.97620836814741 H 0.0 **** 0.06
6640 H 110.24174429898524 113.83576726661083 111.28244524688154 H 0.0 **** 0.06
6641 C 198.79746327538166 58.27345295517114 123.05935376606719 C 0.0 **** -0.24
6642 H 197.79351214164618 58.5978263131322 123.33519466475273 H 0.0 **** 0.06
6643 H 199.28431163357027 57.823212020713896 123.92450977277535 H 0.0 **** 0.06
6644 H 199.37657935538593 59.13261271909238 122.72067662657524 H 0.0 **** 0.06
6645 H 198.7328791062415 57.53988550236579 122.25551247583336 H 0.0 **** 0.06
6646 C 199.81644436549902 100.30432152355935 37.02696510821289 C 0.0 **** -0.24
6647 H 200.25305041078929 101.27466485421782 37.26185892687025 H 0.0 **** 0.06
6648 H 200.04558938468523 100.04302431470991 35.994048142194686 H 0.0 **** 0.06
6649 H 198.73444624081753 100.35184650883342 37.15792924447902 H 0.0 **** 0.06
6650 H 200.23006106535541 99.54910940838256 37.69450836921675 H 0.0 **** 0.06
6651 C 39.25212623129329 176.83957711508253 15.319792430852033 C 0.0 **** -0.24
6652 H 40.25402494281036 176.4931808926259 15.066719790901516 H 0.0 **** 0.06
6653 H 38.64997025800474 175.99478142551425 15.65650386449147 H 0.0 **** 0.06
6654 H 38.7899631682798 177.2874922348758 14.439887043153306 H 0.0 **** 0.06
6655 H 39.31386190996972 177.58229650746455 16.115589363215065 H 0.0 **** 0.06
6656 C 24.94489082531571 71.23881344702869 139.29381198453444 C 0.0 **** -0.24
6657 H 25.594191655918493 71.00254510476009 138.4507658178647 H 0.0 **** 0.06
6658 H 24.166511793221787 70.47989725239654 139.37596693951417 H 0.0 **** 0.06
6659 H 24.486442808049887 72.21457014925943 139.1362258387544 H 0.0 **** 0.06
6660 H 25.53415348835415 71.25776872420244 140.21096211353307 H 0.0 **** 0.06
6661 C 9.625912480363723 118.09991584578945 147.4303876303162 C 0.0 **** -0.24
6662 H 9.097035838441116 119.0387830071874 147.5929978373473 H 0.0 **** 0.06
6663 H 9.60543301614959 117.85191834144327 146.3690945657948 H 0.0 **** 0.06
6664 H 9.140279857177347 117.30596689913448 147.99865533074046 H 0.0 **** 0.06
6665 H 10.65954014226648 118.20279902057014 147.76047253240284 H 0.0 **** 0.06
6666 C 140.0698940728908 123.6014740733611 68.72538188952228 C 0.0 **** -0.24
6667 H 139.59267326376767 123.04051869474297 69.5279773500306 H 0.0 **** 0.06
6668 H 139.43771800269474 123.57449694795066 67.83796440945082 H 0.0 **** 0.06
6669 H 141.0381911993427 123.15564125569021 68.49688261531077 H 0.0 **** 0.06
6670 H 140.21095324339183 124.63556733758948 69.04040343551793 H 0.0 **** 0.06
6671 C 76.84216059522686 216.29663360008215 120.14605951284544 C 0.0 **** -0.24
6672 H 77.13010177717644 215.75277771382144 121.04576601408466 H 0.0 **** 0.06
6673 H 77.50154752277768 217.15391164961883 120.01328771846791 H 0.0 **** 0.06
6674 H 75.81301210119756 216.64195538132935 120.24520275940891 H 0.0 **** 0.06
6675 H 76.92348874050276 215.63683481355866 119.28213681127697 H 0.0 **** 0.06
6676 C 112.97645915316458 77.16580019742771 144.3224659446533 C 0.0 **** -0.24
6677 H 112.10946524713829 77.46841606658946 143.73575790075557 H 0.0 **** 0.06
6678 H 113.79337316885908 76.89806178829788 143.65249447632954 H 0.0 **** 0.06
6679 H 112.71451234917741 76.30630859590478 144.93917672629493 H 0.0 **** 0.06
6680 H 113.28701481953685 77.99069763736337 144.96330408285792 H 0.0 **** 0.06
6681 C 163.12485138344482 75.82068065428291 58.493318048066314 C 0.0 **** -0.24
6682 H 163.21728619656335 75.99778631542432 57.422008793696065 H 0.0 **** 0.06
6683 H 162.4576792996479 74.975644349687 58.66646887695407 H 0.0 **** 0.06
6684 H 162.7173840888254 76.71075832739314 58.973774386684 H 0.0 **** 0.06
6685 H 164.10701954695625 75.60076088006383 58.9112153088911 H 0.0 **** 0.06
6686 C 33.0848382085569 161.15068195310215 1.92277708042311 C 0.0 **** -0.24
6687 H 33.63522708526983 161.4603960682412 2.8109613977181027 H 0.0 **** 0.06
6688 H 33.40779040020146 160.15255762002352 1.6258851062407231 H 0.0 **** 0.06
6689 H 33.27987979601869 161.85213792942127 1.112009285278262 H 0.0 **** 0.06
6690 H 32.01712640371099 161.13731305951313 2.142920034932274 H 0.0 **** 0.06
6691 C 190.67422755989867 208.08794041082402 64.7594109794118 C 0.0 **** -0.24
6692 H 191.44545730377223 207.89099141744805 64.01537744721578 H 0.0 **** 0.06
6693 H 189.72319638169958 208.27032762347596 64.25881958610412 H 0.0 **** 0.06
6694 H 190.9506331955182 208.965553880056 65.34543546060127 H 0.0 **** 0.06
6695 H 190.57823922100778 207.22640246111098 65.42052726571264 H 0.0 **** 0.06
6696 C 189.77654063235485 90.61206387225019 54.69242303023208 C 0.0 **** -0.24
6697 H 189.40949343362723 90.69010315369616 55.71637341048205 H 0.0 **** 0.06
6698 H 189.89715214023792 89.5607642679376 54.43036550081217 H 0.0 **** 0.06
6699 H 190.73692809358283 91.12045105389382 54.611056433975335 H 0.0 **** 0.06
6700 H 189.06017767755725 91.07551339488464 54.01367432629729 H 0.0 **** 0.06
6701 C 31.712920890761012 159.3925987053534 205.47555355467824 C 0.0 **** -0.24
6702 H 32.27190875313198 160.281111417186 205.768046044573 H 0.0 **** 0.06
6703 H 32.2842285848443 158.83092626626757 204.73648270126037 H 0.0 **** 0.06
6704 H 30.75655292692369 159.69050834655198 205.04562413926922 H 0.0 **** 0.06
6705 H 31.538389956701167 158.76863530982337 206.35192948204718 H 0.0 **** 0.06
6706 C 38.79146196538039 163.88335433193856 16.925956657724214 C 0.0 **** -0.24
6707 H 38.047101628885 163.1449017666647 16.626204002744146 H 0.0 **** 0.06
6708 H 38.394485079510105 164.48801673819946 17.741515893645044 H 0.0 **** 0.06
6709 H 39.02645710242814 164.52588921871438 16.07681688206128 H 0.0 **** 0.06
6710 H 39.69546489832368 163.3732502789441 17.257371314586322 H 0.0 **** 0.06
6711 C 123.11463812930747 179.43366971161728 142.9686524573068 C 0.0 **** -0.24
6712 H 122.52920997049871 178.58720050718279 143.3303677139608 H 0.0 **** 0.06
6713 H 122.66459766514966 179.8220999872679 142.055108459398 H 0.0 **** 0.06
6714 H 124.13375165255856 179.1071666665598 142.76186628152948 H 0.0 **** 0.06
6715 H 123.13053637197304 180.21454486661543 143.7278555567015 H 0.0 **** 0.06
6716 C 69.18055826928787 107.80713175127795 110.53825466237714 C 0.0 **** -0.24
6717 H 68.32396928580289 107.4007433058311 110.0003021694892 H 0.0 **** 0.06
6718 H 69.03425274020049 108.87625315371918 110.69792083428626 H 0.0 **** 0.06
6719 H 70.08533496788044 107.64690959138102 109.95320928306734 H 0.0 **** 0.06
6720 H 69.27605244315816 107.30594350787885 111.50098013100177 H 0.0 **** 0.06
6721 C 41.87118600385466 168.7763688049768 215.38506945908222 C 0.0 **** -0.24
6722 H 42.11987189073075 168.48097705149058 214.36564404143587 H 0.0 **** 0.06
6723 H 41.816465237538296 169.8635963686844 215.44486919252725 H 0.0 **** 0.06
6724 H 42.64129299848092 168.41350595288043 216.06545089360353 H 0.0 **** 0.06
6725 H 40.90872556399816 168.34737825533864 215.66276378040413 H 0.0 **** 0.06
6726 C 74.10358273992672 167.50763065562336 114.18400592932586 C 0.0 **** -0.24
6727 H 74.55583753132164 168.33463107384557 113.6365389897165 H 0.0 **** 0.06
6728 H 74.10618648571018 166.6136242910867 113.55938124241395 H 0.0 **** 0.06
6729 H 73.07761778250902 167.7644168769378 114.44771766416996 H 0.0 **** 0.06
6730 H 74.67563686508116 167.31787097691415 115.09206731176361 H 0.0 **** 0.06
6731 C 187.45698911128704 27.242170962704222 52.80173272514155 C 0.0 **** -0.24
6732 H 187.1643507761208 27.46472967472738 51.77551414978707 H 0.0 **** 0.06
6733 H 188.52434967921994 27.424638405800124 52.923042958709544 H 0.0 **** 0.06
6734 H 187.23806350604295 26.19790376756339 53.02223833337162 H 0.0 **** 0.06
6735 H 186.8979777560756 27.881985415816388 53.4855550194236 H 0.0 **** 0.06
6736 C 123.07164046951054 50.781137039490346 214.1962341026047 C 0.0 **** -0.24
6737 H 123.38553339972138 49.88137215469979 214.72438985553546 H 0.0 **** 0.06
6738 H 122.22650703682247 51.23156908248279 214.71726154991103 H 0.0 **** 0.06
6739 H 122.77455103807576 50.520491393625946 213.17965853754683 H 0.0 **** 0.06
6740 H 123.8987774721122 51.49027586100502 214.16193178149786 H 0.0 **** 0.06
6741 C 24.399191122178465 181.4699468219973 207.15314353116756 C 0.0 **** -0.24
6742 H 24.108457875560518 181.82637502523687 206.1647067552929 H 0.0 **** 0.06
6743 H 25.36834469489129 181.8922001759897 207.4214020225745 H 0.0 **** 0.06
6744 H 24.466702269494718 180.3818654264194 207.14190668258948 H 0.0 **** 0.06
6745 H 23.652874214531693 181.78026272296566 207.88466950946696 H 0.0 **** 0.06
6746 C 153.58469367120352 49.76817826293815 13.76915760619201 C 0.0 **** -0.24
6747 H 152.72307392024214 49.88826907909153 13.112637436923222 H 0.0 **** 0.06
6748 H 153.5378497310756 48.79370886803194 14.255311060148358 H 0.0 **** 0.06
6749 H 153.57746339253384 50.55239871044982 14.525600687433808 H 0.0 **** 0.06
6750 H 154.50071676729635 49.83781919728811 13.181806792488004 H 0.0 **** 0.06
6751 C 177.13308465294472 60.3124718466094 163.76715332523 C 0.0 **** -0.24
6752 H 177.86751631669108 59.64942392175429 163.30897897894644 H 0.0 **** 0.06
6753 H 177.26857771856817 60.310071609922005 164.84907893203945 H 0.0 **** 0.06
6754 H 176.12885286675447 59.96476713821863 163.52549636478392 H 0.0 **** 0.06
6755 H 177.26958593862335 61.32409358407814 163.38641591336724 H 0.0 **** 0.06
6756 C 90.90356328124113 96.96938431762415 172.47653383649373 C 0.0 **** -0.24
6757 H 91.36959947858719 97.93960726163151 172.6484025004362 H 0.0 **** 0.06
6758 H 91.58475776669519 96.17893605204075 172.7911872087226 H 0.0 **** 0.06
6759 H 90.68100347201704 96.85672643514074 171.41544737915592 H 0.0 **** 0.06
6760 H 89.9796011659393 96.90346060044489 173.05082575320932 H 0.0 **** 0.06
6761 C 82.17727502485604 213.49655909207837 191.33020752509742 C 0.0 **** -0.24
6762 H 82.09700316446015 214.56681532757577 191.51801897198288 H 0.0 **** 0.06
6763 H 83.1575691912081 213.1434170893196 191.652870257198 H 0.0 **** 0.06
6764 H 82.05485767253003 213.30490846974567 190.26428155943324 H 0.0 **** 0.06
6765 H 81.40047604313105 212.9705456189413 191.88587857694318 H 0.0 **** 0.06
6766 C 84.3566433409037 10.646093790489658 198.29176575909767 C 0.0 **** -0.24
6767 H 85.08422954064741 10.220731604924367 197.59909592169026 H 0.0 **** 0.06
6768 H 84.79163073801863 11.51479616216966 198.78611006490172 H 0.0 **** 0.06
6769 H 84.08600767423326 9.899655971909397 199.03863727264144 H 0.0 **** 0.06
6770 H 83.46607402622607 10.948831746217309 197.74148841671717 H 0.0 **** 0.06
6771 C 212.33600725811823 129.74357241113609 176.86893531908314 C 0.0 **** -0.24
6772 H 211.7150813862383 129.397111904265 177.69565252069864 H 0.0 **** 0.06
6773 H 211.8411156457875 130.57426695265985 176.36600291392074 H 0.0 **** 0.06
6774 H 212.48714285215502 128.92739492822284 176.16204671750899 H 0.0 **** 0.06
6775 H 213.30090397562952 130.07410400140185 177.2540292518158 H 0.0 **** 0.06
6776 C 210.639767791201 89.43349710031801 32.923291182177906 C 0.0 **** -0.24
6777 H 211.71327241507976 89.26846087836013 33.01940058804266 H 0.0 **** 0.06
6778 H 210.3306340623277 89.22307155686876 31.89902042707729 H 0.0 **** 0.06
6779 H 210.4095480468659 90.47101459729491 33.16682857251209 H 0.0 **** 0.06
6780 H 210.10853009664083 88.77257525312682 33.60680777205896 H 0.0 **** 0.06
6781 C 189.17550596956067 45.544045349367934 78.28948933044957 C 0.0 **** -0.24
6782 H 188.7329762158159 44.67768085525728 77.79750343300198 H 0.0 **** 0.06
6783 H 190.26071427027753 45.5018805383296 78.19149838389517 H 0.0 **** 0.06
6784 H 188.90491875981107 45.53864170739064 79.34587350192153 H 0.0 **** 0.06
6785 H 188.80264793950312 46.455880011916804 77.82298469587268 H 0.0 **** 0.06
6786 C 152.0754091907275 201.0359858624797 60.11094300453297 C 0.0 **** -0.24
6787 H 152.40977442230076 201.88788124289746 60.70312818773694 H 0.0 **** 0.06
6788 H 151.1877924434835 200.6000606337308 60.57023033736348 H 0.0 **** 0.06
6789 H 152.86834079374586 200.28911093909846 60.06890180713921 H 0.0 **** 0.06
6790 H 151.83589502989412 201.3680027851899 59.100654001540306 H 0.0 **** 0.06
6791 C 121.55266958825744 72.92647342670676 152.78324002626186 C 0.0 **** -0.24
6792 H 120.80198031681034 72.18442992236089 152.50915571058823 H 0.0 **** 0.06
6793 H 121.05840548149796 73.86449515463534 153.03930914845535 H 0.0 **** 0.06
6794 H 122.22698431653974 73.0881371167751 151.94214987770226 H 0.0 **** 0.06
6795 H 122.12050325080519 72.56730061787056 153.64145734116937 H 0.0 **** 0.06
6796 C 105.86546326421252 102.57285641728834 7.100269048581254 C 0.0 **** -0.24
6797 H 105.30610574835451 101.64909098450028 6.954825867212563 H 0.0 **** 0.06
6798 H 106.16846681198051 102.65277866620744 8.144332946834993 H 0.0 **** 0.06
6799 H 105.23588007625419 103.4226693076759 6.837967342841608 H 0.0 **** 0.06
6800 H 106.74968864922276 102.56519902551787 6.464420845356216 H 0.0 **** 0.06
6801 C 23.2271059546525 7.446071743091011 40.47963750021711 C 0.0 **** -0.24
6802 H 22.71567209657171 7.956970911346389 39.66324139415076 H 0.0 **** 0.06
6803 H 24.304893338567 7.523930589677036 40.337540744594946 H 0.0 **** 0.06
6804 H 22.936621934453186 6.3951418843920464 40.488100146700674 H 0.0 **** 0.06
6805 H 22.950121431679392 7.906917276369654 41.42721867701425 H 0.0 **** 0.06
6806 C 203.3843810025274 83.05790832415433 66.98931143885535 C 0.0 **** -0.24
6807 H 202.67767727939287 82.72374108489579 66.22921719924153 H 0.0 **** 0.06
6808 H 204.1148629778732 82.26991960801944 67.17612692563786 H 0.0 **** 0.06
6809 H 202.84708534447853 83.28216469898418 67.9105174865464 H 0.0 **** 0.06
6810 H 203.89726240832135 83.9534953436647 66.63958200142083 H 0.0 **** 0.06
6811 C 63.866917934089116 84.15639818980878 110.22135803566213 C 0.0 **** -0.24
6812 H 62.83983576332113 84.27975294631705 110.56340618782208 H 0.0 **** 0.06
6813 H 64.54156741362982 84.19559768873472 111.07746062360586 H 0.0 **** 0.06
6814 H 64.11670840085013 84.95647414438827 109.52453931764249 H 0.0 **** 0.06
6815 H 63.9700753721271 83.19335685249445 109.72191429245434 H 0.0 **** 0.06
6816 C 143.94329277185125 7.58042165134799 93.28556881136062 C 0.0 **** -0.24
6817 H 142.90869125340487 7.839466276539127 93.06228938052753 H 0.0 **** 0.06
6818 H 144.58342779510747 8.44094500481421 93.08992154098577 H 0.0 **** 0.06
6819 H 144.252696152191 6.7466302227204835 92.6556017223257 H 0.0 **** 0.06
6820 H 144.02835588670155 7.294645101318295 94.33446260160339 H 0.0 **** 0.06
6821 C 132.28138559446006 216.42702270583706 133.2776903718588 C 0.0 **** -0.24
6822 H 133.18838059993556 216.96832863394056 133.54885472645265 H 0.0 **** 0.06
6823 H 132.5267742297106 215.3835305596179 133.07985281902762 H 0.0 **** 0.06
6824 H 131.84647667133987 216.87408419692952 132.38318301792538 H 0.0 **** 0.06
6825 H 131.56471741639206 216.4845572300315 134.0967395962731 H 0.0 **** 0.06
6826 C 177.97171307613561 57.539180231118294 43.167974079299086 C 0.0 **** -0.24
6827 H 177.47125978688354 56.57069820273627 43.16687504006656 H 0.0 **** 0.06
6828 H 178.12627476963064 57.86606997799244 44.197002717927205 H 0.0 **** 0.06
6829 H 177.3530680871977 58.26856052710427 42.6438129197352 H 0.0 **** 0.06
6830 H 178.9342321791105 57.45092004109608 42.6650464144132 H 0.0 **** 0.06
6831 C 13.552340291288488 187.68404841798284 123.06232819413778 C 0.0 **** -0.24
6832 H 13.520576978706302 186.59598123889924 123.11605934966177 H 0.0 **** 0.06
6833 H 14.579468293156381 188.02436393825613 123.1989794819123 H 0.0 **** 0.06
6834 H 12.922166296796888 188.10508481002898 123.84631942219691 H 0.0 **** 0.06
6835 H 13.187051692105982 188.0105674921836 122.08893019698691 H 0.0 **** 0.06
6836 C 148.72361845163664 107.93791868194269 41.48129566838301 C 0.0 **** -0.24
6837 H 147.96173464252985 108.31096368344662 42.16564179608848 H 0.0 **** 0.06
6838 H 148.24367479026972 107.526654234686 40.59305821201801 H 0.0 **** 0.06
6839 H 149.30437980213725 107.1584589462456 41.97489461213236 H 0.0 **** 0.06
6840 H 149.38453267842618 108.75528894586925 41.19252694379452 H 0.0 **** 0.06
6841 C 6.531061212602253 56.45881593311401 189.4211361851396 C 0.0 **** -0.24
6842 H 5.48553363419952 56.31449575258978 189.69322055253696 H 0.0 **** 0.06
6843 H 7.0864675018760295 55.540855740456095 189.61543515156814 H 0.0 **** 0.06
6844 H 6.952418294968311 57.27102682463965 190.01231364584157 H 0.0 **** 0.06
6845 H 6.599254488540566 56.70682181364512 188.3623855628584 H 0.0 **** 0.06
6846 C 209.12357080336574 48.56139374102776 200.82485304356413 C 0.0 **** -0.24
6847 H 208.65848111767642 48.737721033154 199.8549090201894 H 0.0 **** 0.06
6848 H 210.19429782586957 48.404582518557504 200.69036126710938 H 0.0 **** 0.06
6849 H 208.68057942471734 47.67749398426679 201.28393909008824 H 0.0 **** 0.06
6850 H 208.96069053504783 49.425740151146215 201.46797933247308 H 0.0 **** 0.06
6851 C 129.7566441753351 188.7141837209822 193.8390803147778 C 0.0 **** -0.24
6852 H 130.54299774949016 188.64301600348026 193.08732479820446 H 0.0 **** 0.06
6853 H 130.17580912877452 189.1022537664856 194.76686665926098 H 0.0 **** 0.06
6854 H 129.33331991021112 187.72554168340884 194.01607077227044 H 0.0 **** 0.06
6855 H 128.9743534799037 189.38490969007594 193.48342024811922 H 0.0 **** 0.06
6856 C 182.1032501819751 184.27439421208203 204.15490989058256 C 0.0 **** -0.24
6857 H 182.68701737878575 184.93679741722264 204.79474112200785 H 0.0 **** 0.06
6858 H 182.71702267183343 183.4253239851426 203.85461801230724 H 0.0 **** 0.06
6859 H 181.77736665034837 184.81973333360935 203.26860276519687 H 0.0 **** 0.06
6860 H 181.23046109035863 183.91827663068636 204.70276901214154 H 0.0 **** 0.06
6861 C 16.694592183928464 85.28473723445346 93.40747210940212 C 0.0 **** -0.24
6862 H 16.07629469641165 86.1323379125616 93.70476398784591 H 0.0 **** 0.06
6863 H 17.538215437331417 85.6420111833459 92.81667834406447 H 0.0 **** 0.06
6864 H 16.10004593833166 84.5924145821259 92.81278041142347 H 0.0 **** 0.06
6865 H 17.063936797013824 84.77548431083157 94.29742668557263 H 0.0 **** 0.06
6866 C 10.292788101862698 23.793075166510505 137.88721966028697 C 0.0 **** -0.24
6867 H 10.69828664855686 23.631663400066827 136.88806886160188 H 0.0 **** 0.06
6868 H 10.796401765909252 23.131840298745203 138.59395221326338 H 0.0 **** 0.06
6869 H 9.224475442157654 23.578524915241758 137.88567878497304 H 0.0 **** 0.06
6870 H 10.454974106559973 24.830193328456403 138.18146235160094 H 0.0 **** 0.06
6871 C 66.15782910795906 74.70373248003428 117.94323471371918 C 0.0 **** -0.24
6872 H 66.28810243479619 73.92022466325439 117.1971559728179 H 0.0 **** 0.06
6873 H 65.35916848728131 75.37598230782449 117.62747920383008 H 0.0 **** 0.06
6874 H 67.08626032217897 75.26477759962857 118.04716248507678 H 0.0 **** 0.06
6875 H 65.895717969025 74.25276058783452 118.90057281906509 H 0.0 **** 0.06
6876 C 142.84487221959813 11.363630310523334 63.370548298761435 C 0.0 **** -0.24
6877 H 141.997853390805 11.871533141534854 63.830765572871485 H 0.0 **** 0.06
6878 H 142.7084235901728 10.285480432535408 63.450521652045836 H 0.0 **** 0.06
6879 H 143.7629952245955 11.65338229454693 63.880305151903016 H 0.0 **** 0.06
6880 H 142.90957290654956 11.644649682177004 62.31908071420838 H 0.0 **** 0.06
6881 C 53.786496717128585 75.64027737056 212.0600932021107 C 0.0 **** -0.24
6882 H 53.80085947602521 76.2083393280775 211.13076955891097 H 0.0 **** 0.06
6883 H 53.34199146778016 76.24577350900131 212.8497327655639 H 0.0 **** 0.06
6884 H 54.807076792019814 75.37339706117109 212.3377483449436 H 0.0 **** 0.06
6885 H 53.198721266597744 74.73281707283462 211.92267064147285 H 0.0 **** 0.06
6886 C 151.18238304109025 124.47731557756572 66.17839514263022 C 0.0 **** -0.24
6887 H 150.79979853036923 125.49414883762222 66.09302335748919 H 0.0 **** 0.06
6888 H 152.2450451353052 124.50733057054754 66.41917618589093 H 0.0 **** 0.06
6889 H 151.03806937126967 123.9547934416446 65.23179419742843 H 0.0 **** 0.06
6890 H 150.6450530213623 123.95204403783316 66.96742960383301 H 0.0 **** 0.06
6891 C 44.24238660490944 156.52148117765148 8.83073716466987 C 0.0 **** -0.24
6892 H 44.627868615496226 155.51025076947673 8.700714791473644 H 0.0 **** 0.06
6893 H 44.952705960291254 157.10834532161937 9.412622907115974 H 0.0 **** 0.06
6894 H 43.28807115768633 156.48094452423976 9.356463285899054 H 0.0 **** 0.06
6895 H 44.09965830155788 156.9846350904723 7.854329860471182 H 0.0 **** 0.06
6896 C 50.19864767130133 123.70696626084624 49.91953289768634 C 0.0 **** -0.24
6897 H 50.41161690590121 124.74965939126876 50.15566057766142 H 0.0 **** 0.06
6898 H 49.46768503562572 123.65851175236396 49.11332083030328 H 0.0 **** 0.06
6899 H 49.798607193617215 123.21021313741277 50.80341359449693 H 0.0 **** 0.06
6900 H 51.118283546367195 123.21066415479537 49.6089041468727 H 0.0 **** 0.06
6901 C 45.663704491067165 166.40740143710292 150.66740464865575 C 0.0 **** -0.24
6902 H 45.78171137942577 166.23512960601985 149.5979983122047 H 0.0 **** 0.06
6903 H 45.773653955169976 165.46387648250086 151.20177615640665 H 0.0 **** 0.06
6904 H 44.67392132737923 166.8222508877062 150.86062829080612 H 0.0 **** 0.06
6905 H 46.42394241087359 167.10998269166925 151.0083181532646 H 0.0 **** 0.06
6906 C 150.47240519603395 7.993530857065835 1.3489363751413919 C 0.0 **** -0.24
6907 H 150.2290610998283 8.498803116282375 0.4139129833809747 H 0.0 **** 0.06
6908 H 149.5883730204465 7.966493505520631 1.9871230679967553 H 0.0 **** 0.06
6909 H 151.2713957337599 8.533437815382314 1.8570906171867847 H 0.0 **** 0.06
6910 H 150.79883375750205 6.976028135179746 1.136291778148582 H 0.0 **** 0.06
6911 C 81.68968196702663 84.09218399847016 91.46723201814028 C 0.0 **** -0.24
6912 H 80.77045738371807 83.87312225228969 90.92291752012953 H 0.0 **** 0.06
6913 H 81.55549542646769 83.84535347742393 92.52034635230224 H 0.0 **** 0.06
6914 H 81.9256938083103 85.15140076939706 91.36808884428727 H 0.0 **** 0.06
6915 H 82.50537004725892 83.49844242072955 91.05476501383548 H 0.0 **** 0.06
6916 C 119.66817568289316 35.56073451679222 108.51481251771251 C 0.0 **** -0.24
6917 H 119.74896544439976 35.917983302557516 109.54179229778877 H 0.0 **** 0.06
6918 H 118.82969450081428 34.868972457631685 108.4358967869449 H 0.0 **** 0.06
6919 H 120.58884121140322 35.048745345993254 108.23558643751313 H 0.0 **** 0.06
6920 H 119.5060359447286 36.406612417309304 107.8469304807006 H 0.0 **** 0.06
6921 C 202.42759924606267 101.44957391908225 127.06735448078429 C 0.0 **** -0.24
6922 H 202.01669900435513 101.70756971185862 128.0431619876411 H 0.0 **** 0.06
6923 H 203.23764997319216 102.13611850051278 126.82097977440758 H 0.0 **** 0.06
6924 H 201.64360036236445 101.52512189919518 126.31253236671704 H 0.0 **** 0.06
6925 H 202.80976620643554 100.4285011124603 127.09182679002292 H 0.0 **** 0.06
6926 C 106.39496328571472 110.14304437592405 78.26825487367505 C 0.0 **** -0.24
6927 H 105.58755411268417 109.57947484826236 78.7376470136412 H 0.0 **** 0.06
6928 H 106.23340976713278 111.20912258551449 78.42724495167177 H 0.0 **** 0.06
6929 H 106.41001583170537 109.93227576605896 77.19879746195922 H 0.0 **** 0.06
6930 H 107.34699631399558 109.84979664474669 78.71081449663738 H 0.0 **** 0.06
6931 C 175.61974208548548 72.12379206592855 5.120734233399986 C 0.0 **** -0.24
6932 H 174.5754526667795 71.8099782218632 5.139539537149602 H 0.0 **** 0.06
6933 H 175.87563698865313 72.59072014643614 6.072493721912622 H 0.0 **** 0.06
6934 H 175.76959042560088 72.8388923102588 4.312115506715372 H 0.0 **** 0.06
6935 H 176.2563973718207 71.25416574513262 4.959444938634704 H 0.0 **** 0.06
6936 C 156.94638369095935 199.6583328747478 201.77399714770328 C 0.0 **** -0.24
6937 H 156.44500782976627 200.02666138129968 200.87903765592048 H 0.0 **** 0.06
6938 H 156.22759610622484 199.12675677846468 202.3983659608804 H 0.0 **** 0.06
6939 H 157.3590888007907 200.4996141078177 202.33045604958667 H 0.0 **** 0.06
6940 H 157.75051547463562 198.98126737481664 201.48713044173982 H 0.0 **** 0.06
6941 C 181.83936994324773 148.6199567085916 162.5304397418277 C 0.0 **** -0.24
6942 H 182.79930504332606 149.1336357204408 162.5714835579396 H 0.0 **** 0.06
6943 H 181.97006138062494 147.58074517323308 162.83502027071557 H 0.0 **** 0.06
6944 H 181.452405534457 148.6536150245799 161.5115149078194 H 0.0 **** 0.06
6945 H 181.13539759378762 149.10974694431354 163.20299129202476 H 0.0 **** 0.06
6946 C 62.128347021655344 85.11798324373832 130.11506207411338 C 0.0 **** -0.24
6947 H 61.616535774820974 84.94281437519045 129.1688299409335 H 0.0 **** 0.06
6948 H 61.662762763439076 85.95758531775404 130.63005602787803 H 0.0 **** 0.06
6949 H 63.17706218441981 85.34493059391649 129.9237415549062 H 0.0 **** 0.06
6950 H 62.05717704933102 84.22447052080959 130.7364242951321 H 0.0 **** 0.06
6951 C 55.8561016264062 70.86978995745251 146.37027868042674 C 0.0 **** -0.24
6952 H 55.92122459767762 71.69213591031023 145.65680948464967 H 0.0 **** 0.06
6953 H 55.695387875335086 69.93572074094747 145.83258832885377 H 0.0 **** 0.06
6954 H 55.02352820171825 71.04625172864824 147.05156340697948 H 0.0 **** 0.06
6955 H 56.78453581844781 70.8083079200526 146.9383306610843 H 0.0 **** 0.06
6956 C 148.27296216751472 213.01198395131877 95.0397084329993 C 0.0 **** -0.24
6957 H 147.3557099254822 213.00730316176902 94.45012928972807 H 0.0 **** 0.06
6958 H 148.9650371837767 213.7475324804804 94.6280001703737 H 0.0 **** 0.06
6959 H 148.73121847149332 212.0235064333924 95.00620477817739 H 0.0 **** 0.06
6960 H 148.0396929397217 213.2696763185989 96.07205877171606 H 0.0 **** 0.06
6961 C 91.21293591933552 67.4602629531436 188.6109816647571 C 0.0 **** -0.24
6962 H 90.87834985796319 66.69841504046069 189.31457959710397 H 0.0 **** 0.06
6963 H 91.90112659764439 67.01366497923048 187.89244426292842 H 0.0 **** 0.06
6964 H 91.71969716760147 68.25868266442649 189.15287200012318 H 0.0 **** 0.06
6965 H 90.35159089691264 67.86988427491355 188.08309411395084 H 0.0 **** 0.06
6966 C 103.06569110010007 84.2689234934284 116.4578409995578 C 0.0 **** -0.24
6967 H 103.1897757280477 83.53707045135998 115.65995926745417 H 0.0 **** 0.06
6968 H 102.28258241370294 83.93488945151311 117.13893291063023 H 0.0 **** 0.06
6969 H 102.78821328040631 85.23136779812573 116.02719593974923 H 0.0 **** 0.06
6970 H 104.00271589758113 84.37326024567803 117.00431286346908 H 0.0 **** 0.06
6971 C 0.7474866493062677 125.81967504229607 143.22532665258586 C 0.0 **** -0.24
6972 H 1.7126886005577262 126.00506720980718 142.75339436464458 H 0.0 **** 0.06
6973 H 0.9014876752171972 125.51227840004134 144.2595955353898 H 0.0 **** 0.06
6974 H 0.22554655586452554 125.02999625869194 142.68478054357445 H 0.0 **** 0.06
6975 H 0.15083921546715828 126.73220830499866 143.20258814356072 H 0.0 **** 0.06
6976 C 5.897544450454362 80.88501041057994 130.06571543797725 C 0.0 **** -0.24
6977 H 5.1907868480565185 81.40372213541902 130.71337736635496 H 0.0 **** 0.06
6978 H 6.895737860557276 80.9403259600982 130.50047197764326 H 0.0 **** 0.06
6979 H 5.902092935785177 81.35513318801766 129.08270068254734 H 0.0 **** 0.06
6980 H 5.601207512833511 79.8406011985379 129.96850456883874 H 0.0 **** 0.06
6981 C 139.47581928411773 82.58463882017294 97.57942288902437 C 0.0 **** -0.24
6982 H 139.96087084576817 83.43936044267728 98.05129265252965 H 0.0 **** 0.06
6983 H 138.8723208529263 82.0563611346597 98.31818501811567 H 0.0 **** 0.06
6984 H 140.23490740423244 81.91057849551323 97.18194955785965 H 0.0 **** 0.06
6985 H 138.83609711243867 82.93086418276626 96.76775443764562 H 0.0 **** 0.06
6986 C 3.2296247180983926 95.75051276493703 159.23270402513862 C 0.0 **** -0.24
6987 H 4.020608779902233 96.34328008911761 159.69152451353287 H 0.0 **** 0.06
6988 H 3.1877316709295087 95.96627651421134 158.16512165701954 H 0.0 **** 0.06
6989 H 2.273492436810102 96.00297465448945 159.69270425969506 H 0.0 **** 0.06
6990 H 3.4362388816759903 94.69042266601484 159.38151502975626 H 0.0 **** 0.06
6991 C 92.50117980507554 122.49311624553565 21.75039484949059 C 0.0 **** -0.24
6992 H 91.64146438898484 122.61692766439427 22.40965601843112 H 0.0 **** 0.06
6993 H 92.40044467728774 121.56054920523223 21.194172497514842 H 0.0 **** 0.06
6994 H 93.41315789689412 122.46496400429817 22.345657418883263 H 0.0 **** 0.06
6995 H 92.5471834292556 123.32941153648096 21.05333030603242 H 0.0 **** 0.06
6996 C 177.41790358526873 18.449961472737158 121.38798236197552 C 0.0 **** -0.24
6997 H 176.53543508009523 18.992953519685955 121.04852231540228 H 0.0 **** 0.06
6998 H 178.25260158979108 19.143147024220895 121.49171840770514 H 0.0 **** 0.06
6999 H 177.67174798186792 17.679970068621913 120.66029673250422 H 0.0 **** 0.06
7000 H 177.20854451871438 17.985566063688168 122.35136069540279 H 0.0 **** 0.06
7001 C 197.91363948709076 128.89315527023405 208.0481605231392 C 0.0 **** -0.24
7002 H 197.33476756289195 128.60406716019133 207.17124918851238 H 0.0 **** 0.06
7003 H 197.4569987981866 129.76827459800313 208.51268136712497 H 0.0 **** 0.06
7004 H 198.93356566707615 129.13160916121421 207.74870026933723 H 0.0 **** 0.06
7005 H 197.92769136970017 128.0690661963555 208.7612312589544 H 0.0 **** 0.06
7006 C 52.83160624796031 32.89220591689204 110.40880922017514 C 0.0 **** -0.24
7007 H 53.875994557004105 33.037574297168135 110.13717492690164 H 0.0 **** 0.06
7008 H 52.43806689318512 32.01794743727541 109.88903422543531 H 0.0 **** 0.06
7009 H 52.255333530013644 33.773309155048196 110.12493778729156 H 0.0 **** 0.06
7010 H 52.753790464703684 32.740045493423935 111.48596151635358 H 0.0 **** 0.06
7011 C 36.3447512286604 136.44107950114716 77.16814711091223 C 0.0 **** -0.24
7012 H 37.06057815058591 135.71831868089743 77.5607216450336 H 0.0 **** 0.06
7013 H 35.44770626687746 136.435468350799 77.78829871225196 H 0.0 **** 0.06
7014 H 36.081685729096364 136.17315511984975 76.14537676151667 H 0.0 **** 0.06
7015 H 36.7897242870565 137.43571520979913 77.18079267009307 H 0.0 **** 0.06
7016 C 150.66455196928882 111.98251608842902 140.42703005266918 C 0.0 **** -0.24
7017 H 150.0202380910311 112.05503968436393 139.5509135713126 H 0.0 **** 0.06
7018 H 150.0721379220052 111.67481025713046 141.2886476321471 H 0.0 **** 0.06
7019 H 151.11843261931745 112.95412890000314 140.6248027868442 H 0.0 **** 0.06
7020 H 151.44750393096615 111.24748301338873 140.24174720743656 H 0.0 **** 0.06
7021 C 109.75986457958975 77.62328369271768 113.61580867407422 C 0.0 **** -0.24
7022 H 109.69743111476443 78.56243640275943 113.06625850975014 H 0.0 **** 0.06
7023 H 109.08094324091648 77.6549832612589 114.46853495283928 H 0.0 **** 0.06
7024 H 110.78077674733284 77.47637207838864 113.96900333466839 H 0.0 **** 0.06
7025 H 109.48003748263692 76.79841585874163 112.95917786534609 H 0.0 **** 0.06
7026 C 183.98367865430987 162.64278601134788 58.028496671556184 C 0.0 **** -0.24
7027 H 184.03121443228986 163.00620641417242 57.0020211017973 H 0.0 **** 0.06
7028 H 184.4225517132964 163.38460727634333 58.696602056505796 H 0.0 **** 0.06
7029 H 184.53756373391568 161.7077550697045 58.1092591925956 H 0.0 **** 0.06
7030 H 182.94251931184982 162.47440768935547 58.305159127580055 H 0.0 **** 0.06
7031 C 19.277263781166724 37.93424951602326 3.2958347337921126 C 0.0 **** -0.24
7032 H 19.058039664180768 37.40078754702277 2.371451028681129 H 0.0 **** 0.06
7033 H 18.346235504375542 38.1467784716248 3.8221967227144447 H 0.0 **** 0.06
7034 H 19.78567447273393 38.86952209475608 3.062880020701222 H 0.0 **** 0.06
7035 H 19.918741247379174 37.319277003942176 3.9261279884949474 H 0.0 **** 0.06
7036 C 23.859350071240954 94.73219644825541 14.383456708024198 C 0.0 **** -0.24
7037 H 24.463182353396007 93.8984981470138 14.024085220205848 H 0.0 **** 0.06
7038 H 23.31019489855737 94.42491899246521 15.273663034763672 H 0.0 **** 0.06
7039 H 23.15527362173148 95.03141090051928 13.606939996263236 H 0.0 **** 0.06
7040 H 24.508400853592974 95.57181754568988 14.62859259107131 H 0.0 **** 0.06
7041 C 123.65238745802613 26.616128604314326 42.02502038343664 C 0.0 **** -0.24
7042 H 123.05086890484087 26.97837914109482 42.85896469956151 H 0.0 **** 0.06
7043 H 123.42940174236846 27.204224694795897 41.13427041228755 H 0.0 **** 0.06
7044 H 123.41833673948916 25.56820669203205 41.83704946514058 H 0.0 **** 0.06
7045 H 124.7096249808878 26.713867062788438 42.26930941643553 H 0.0 **** 0.06
7046 C 15.85641931352913 114.7489142697742 58.83813485787786 C 0.0 **** -0.24
7047 H 15.149309567285727 113.92078735222752 58.890286165702335 H 0.0 **** 0.06
7048 H 16.86199650217199 114.35720910210877 58.68324223516744 H 0.0 **** 0.06
7049 H 15.82474530076722 115.31309751022972 59.769570923333205 H 0.0 **** 0.06
7050 H 15.589011565923556 115.40285967323932 58.00779056103917 H 0.0 **** 0.06
7051 C 20.50902729005807 146.05714458511295 126.66984120941991 C 0.0 **** -0.24
7052 H 20.08526698065569 145.86285853266787 127.65540159616766 H 0.0 **** 0.06
7053 H 20.080579073863163 145.36163861834456 125.94754436721679 H 0.0 **** 0.06
7054 H 21.58996437450037 145.92183152859866 126.70743819930958 H 0.0 **** 0.06
7055 H 20.28054258114514 147.07950959279088 126.37083344338198 H 0.0 **** 0.06
7056 C 71.3467888991388 168.70171874160903 52.104676110980805 C 0.0 **** -0.24
7057 H 72.0248785745207 169.1359035679234 51.37028108249231 H 0.0 **** 0.06
7058 H 71.88219179485134 167.9596030930839 52.69734148816943 H 0.0 **** 0.06
7059 H 70.51239030530832 168.224009425771 51.590269706719454 H 0.0 **** 0.06
7060 H 70.96950585827699 169.48675503498197 52.759277245485805 H 0.0 **** 0.06
7061 C 72.21146241031664 182.5219915127176 47.88197837289955 C 0.0 **** -0.24
7062 H 71.26344762043618 182.1934838485687 47.45391781685841 H 0.0 **** 0.06
7063 H 72.47231046980022 183.49954024993116 47.47693900928503 H 0.0 **** 0.06
7064 H 72.99103062546419 181.80337374601584 47.629439194195385 H 0.0 **** 0.06
7065 H 72.11611576638063 182.59046633309822 48.9655896275806 H 0.0 **** 0.06
7066 C 13.363170524840086 71.70775454313213 126.04892489346759 C 0.0 **** -0.24
7067 H 14.302042361873362 71.67529016783357 126.60055779051896 H 0.0 **** 0.06
7068 H 13.016032913388528 70.69213936894516 125.86242714391875 H 0.0 **** 0.06
7069 H 13.519008761235852 72.21958754116707 125.09904775929482 H 0.0 **** 0.06
7070 H 12.616634865001373 72.24622032829177 126.63367891186573 H 0.0 **** 0.06
7071 C 171.3254765799644 22.051666281550155 204.98265457484456 C 0.0 **** -0.24
7072 H 171.0191698822744 21.554297075746064 205.90378553377627 H 0.0 **** 0.06
7073 H 170.54979699320737 22.750504428139863 204.67191266425854 H 0.0 **** 0.06
7074 H 171.47923268344087 21.306310041270137 204.20166527275117 H 0.0 **** 0.06
7075 H 172.2558526325398 22.59356033271237 205.155583440502 H 0.0 **** 0.06
7076 C 159.27628377531428 189.0932525940728 104.75094138082227 C 0.0 **** -0.24
7077 H 158.78153311230597 190.00895896296038 105.07535588655111 H 0.0 **** 0.06
7078 H 159.062966577595 188.91940756009154 103.69571257475292 H 0.0 **** 0.06
7079 H 158.90706906405796 188.25343536631357 105.33923522816923 H 0.0 **** 0.06
7080 H 160.35215494641113 189.1912103395302 104.8933725141552 H 0.0 **** 0.06
7081 C 54.209780082130806 212.59014418742018 135.17794237210882 C 0.0 **** -0.24
7082 H 53.9151744426232 211.84205894672965 135.91394177888498 H 0.0 **** 0.06
7083 H 54.262139288194135 212.12742936112448 134.1915577267913 H 0.0 **** 0.06
7084 H 55.186469499725035 212.99508443780752 135.4411576760357 H 0.0 **** 0.06
7085 H 53.474979112679534 213.39479361152274 135.16258111488548 H 0.0 **** 0.06
7086 C 16.183103309471917 190.03648544598275 145.4510406651163 C 0.0 **** -0.24
7087 H 15.411442014028466 190.51388220245414 144.8482460936196 H 0.0 **** 0.06
7088 H 17.105934095843352 190.61282757209364 145.3841883453378 H 0.0 **** 0.06
7089 H 16.358791555060137 189.0255287653129 145.08232210095866 H 0.0 **** 0.06
7090 H 15.857274559197961 189.99180024205805 146.49055497752352 H 0.0 **** 0.06
7091 C 58.75266601295593 161.51896352428645 127.6766927007957 C 0.0 **** -0.24
7092 H 58.12221027891917 162.37109703070416 127.4223166113306 H 0.0 **** 0.06
7093 H 58.79071359445351 160.8301212600168 126.8318052043236 H 0.0 **** 0.06
7094 H 58.33761499242409 161.00691995155782 128.5446772412211 H 0.0 **** 0.06
7095 H 59.758738624994095 161.8676241279127 127.906937780392 H 0.0 **** 0.06
7096 C 185.06761962675492 28.991799765787334 203.79773389398318 C 0.0 **** -0.24
7097 H 184.01563117624164 29.125498454902527 203.54791180145133 H 0.0 **** 0.06
7098 H 185.50332456857808 29.955505821505483 204.06060643187266 H 0.0 **** 0.06
7099 H 185.59505886765217 28.57658976598873 202.93846114676938 H 0.0 **** 0.06
7100 H 185.15563531708676 28.308759804254862 204.64318217881066 H 0.0 **** 0.06
7101 C 108.87270562299581 0.5836515757012961 104.88125585725687 C 0.0 **** -0.24
7102 H 109.65482670285773 0.045837166284961484 104.34412231957656 H 0.0 **** 0.06
7103 H 109.30880050477639 1.0970541373816118 105.73873426289084 H 0.0 **** 0.06
7104 H 108.11739448029066 -0.12282250274649442 105.22457433927671 H 0.0 **** 0.06
7105 H 108.41180541403138 1.313756058167975 104.21642161605594 H 0.0 **** 0.06
7106 C 62.08167912454677 181.2790540395526 107.07514261498882 C 0.0 **** -0.24
7107 H 61.029779429779836 181.10643970247634 107.30769475508474 H 0.0 **** 0.06
7108 H 62.54407740209972 180.3407518341579 106.76915742473984 H 0.0 **** 0.06
7109 H 62.58959807813477 181.6643615884214 107.95899472827561 H 0.0 **** 0.06
7110 H 62.16045816155621 182.00390958610376 106.26548069734149 H 0.0 **** 0.06
7111 C 82.17501035301932 146.53358709833708 179.00740301148747 C 0.0 **** -0.24
7112 H 81.92895962668901 146.31565969411582 177.96828809100026 H 0.0 **** 0.06
7113 H 83.25410523157494 146.46342699086404 179.14670466410502 H 0.0 **** 0.06
7114 H 81.67599312496965 145.81476425077506 179.65696105271743 H 0.0 **** 0.06
7115 H 81.84067790074043 147.5408282437392 179.25546796009752 H 0.0 **** 0.06
7116 C 167.05086401202374 18.216396457832047 111.33039789174059 C 0.0 **** -0.24
7117 H 167.10813618635865 18.595560124411918 110.3096080187337 H 0.0 **** 0.06
7118 H 168.0510645544837 18.181092877683056 111.76152044830685 H 0.0 **** 0.06
7119 H 166.6240166714342 17.213451627789766 111.32069459919025 H 0.0 **** 0.06
7120 H 166.41980329303325 18.874193743918397 111.92709397604106 H 0.0 **** 0.06
7121 C 84.28210481625645 124.69099142582671 45.957797437002 C 0.0 **** -0.24
7122 H 83.73677628131783 124.41532824063283 46.86026778515088 H 0.0 **** 0.06
7123 H 85.03398449164705 125.44107878448683 46.202695460342454 H 0.0 **** 0.06
7124 H 83.58660935272992 125.09831579710728 45.22364822743714 H 0.0 **** 0.06
7125 H 84.76956472098472 123.80842523113209 45.5442205019894 H 0.0 **** 0.06
7126 C 129.62238930981903 92.49632396078518 146.86323999551593 C 0.0 **** -0.24
7127 H 129.06306050095225 93.02239938255032 146.08868070448932 H 0.0 **** 0.06
7128 H 130.6761066381858 92.45514427592057 146.58475985809258 H 0.0 **** 0.06
7129 H 129.2330504546435 91.48359800654391 146.9668717055884 H 0.0 **** 0.06
7130 H 129.516645639491 93.02573528966265 147.8093282742932 H 0.0 **** 0.06
7131 C 58.7263548999033 136.20133304269962 178.05494043348864 C 0.0 **** -0.24
7132 H 57.78037253192102 135.6630314315986 178.09788044246272 H 0.0 **** 0.06
7133 H 59.16429053548046 136.2484993310597 179.05252645756337 H 0.0 **** 0.06
7134 H 58.552077753138974 137.21217473815597 177.68516659298 H 0.0 **** 0.06
7135 H 59.409129378963314 135.68152043051725 177.38200060348788 H 0.0 **** 0.06
7136 C 144.1179435089491 111.23688877709388 60.50249511058007 C 0.0 **** -0.24
7137 H 143.5387218909798 111.84163851182593 61.19986746655931 H 0.0 **** 0.06
7138 H 144.3243581178425 110.26447000897069 60.94977565794909 H 0.0 **** 0.06
7139 H 145.05888235068426 111.74165750886998 60.27918637191104 H 0.0 **** 0.06
7140 H 143.55197644926892 111.10092921261811 59.58126907427015 H 0.0 **** 0.06
7141 C 143.00365376016407 213.89496494892296 201.59548201989946 C 0.0 **** -0.24
7142 H 143.11398107093743 213.14560985831423 200.81034126560135 H 0.0 **** 0.06
7143 H 143.45915009483434 213.5262606364356 202.51440875874835 H 0.0 **** 0.06
7144 H 141.9451734389433 214.08929084347776 201.76546723959598 H 0.0 **** 0.06
7145 H 143.49808782589093 214.81670534368845 201.28841404639664 H 0.0 **** 0.06
7146 C 36.858320780214456 85.53622394696181 108.56328593765382 C 0.0 **** -0.24
7147 H 35.950511341884805 85.10691167007651 108.98627307270628 H 0.0 **** 0.06
7148 H 36.93355674468711 86.58380407066208 108.85281063524128 H 0.0 **** 0.06
7149 H 36.8226325130575 85.46050533162968 107.47648274649443 H 0.0 **** 0.06
7150 H 37.725427803769605 84.99217445383012 108.93638736873025 H 0.0 **** 0.06
7151 C 70.08912966811482 16.480017110649953 127.54803232501844 C 0.0 **** -0.24
7152 H 70.77696126048784 17.309492756311386 127.38124202253529 H 0.0 **** 0.06
7153 H 69.52811560057563 16.28525143449258 126.6342628374979 H 0.0 **** 0.06
7154 H 69.39833842371581 16.73715254813044 128.35095819855633 H 0.0 **** 0.06
7155 H 70.65375401712856 15.590315710744676 127.82467628357695 H 0.0 **** 0.06
7156 C 151.15798423894228 103.91829704590067 47.65057789590014 C 0.0 **** -0.24
7157 H 150.28325459933927 103.40533288752617 48.05174866435294 H 0.0 **** 0.06
7158 H 150.94247469314388 104.98264129424673 47.554260187608335 H 0.0 **** 0.06
7159 H 151.40350922943247 103.50706274210027 46.67241792395164 H 0.0 **** 0.06
7160 H 152.00148317027305 103.77800651991781 48.32680068736734 H 0.0 **** 0.06
7161 C 114.07679648789367 15.283493121648462 179.5515760426606 C 0.0 **** -0.24
7162 H 113.1252022980761 15.741158324845173 179.28259800750826 H 0.0 **** 0.06
7163 H 114.13521911234399 15.180182484741522 180.63590388772718 H 0.0 **** 0.06
7164 H 114.89480846510806 15.913079040550713 179.20145019008135 H 0.0 **** 0.06
7165 H 114.15094437682033 14.299866408522746 179.08804857569163 H 0.0 **** 0.06
7166 C 100.63085092665257 168.2472779580454 182.47534090794983 C 0.0 **** -0.24
7167 H 101.31691135295286 169.07179458830183 182.28272588735177 H 0.0 **** 0.06
7168 H 99.64703957782255 168.6455331654115 182.72711101441314 H 0.0 **** 0.06
7169 H 101.00482607869567 167.64982605188447 183.30711007746368 H 0.0 **** 0.06
7170 H 100.55425303646551 167.623312191345 181.58542989802334 H 0.0 **** 0.06
7171 C 136.54258577248874 106.52330662204075 39.98436359587906 C 0.0 **** -0.24
7172 H 136.68982018725507 106.90431397041264 40.99452573642017 H 0.0 **** 0.06
7173 H 137.48890452028252 106.14323654792737 39.598382097056984 H 0.0 **** 0.06
7174 H 136.1848347191629 107.32699556285307 39.34190551757861 H 0.0 **** 0.06
7175 H 135.80804221888542 105.71812739099398 40.002973064012224 H 0.0 **** 0.06
7176 C 142.80811483080714 166.26528727732858 65.1278730549841 C 0.0 **** -0.24
7177 H 142.99021880779122 165.93228265405827 66.14878792357814 H 0.0 **** 0.06
7178 H 142.19483277818762 165.52782109317027 64.60926443398067 H 0.0 **** 0.06
7179 H 143.7585497832053 166.37754695367764 64.6068622194337 H 0.0 **** 0.06
7180 H 142.28757071516623 167.22366607655243 65.1447569320362 H 0.0 **** 0.06
7181 C 149.61677401878325 160.1580324371723 211.67456133873935 C 0.0 **** -0.24
7182 H 150.15987653719048 159.46757854882807 211.02919073147845 H 0.0 **** 0.06
7183 H 150.2706963003995 160.98446808450026 211.95327070394913 H 0.0 **** 0.06
7184 H 149.2885956521502 159.6351880771099 212.5720505282246 H 0.0 **** 0.06
7185 H 148.7485505661391 160.54593128856166 211.14064498286064 H 0.0 **** 0.06
7186 C 71.4714505704539 88.46871012710324 47.27201188014547 C 0.0 **** -0.24
7187 H 72.34409799189007 88.79363071729568 46.7061919353238 H 0.0 **** 0.06
7188 H 71.43649714212688 87.37958880868632 47.291406283112025 H 0.0 **** 0.06
7189 H 70.5682605720906 88.85357965335663 46.79977741444493 H 0.0 **** 0.06
7190 H 71.53811697737473 88.84837468952924 48.291392349111064 H 0.0 **** 0.06
7191 C 213.99573851699378 66.85091143876099 33.03625359849224 C 0.0 **** -0.24
7192 H 214.9123831765939 66.30448362865245 33.25714575487336 H 0.0 **** 0.06
7193 H 214.2109014646971 67.91860873882294 32.99269307526663 H 0.0 **** 0.06
7194 H 213.26118265412683 66.6594080493836 33.81918417772039 H 0.0 **** 0.06
7195 H 213.59788667112008 66.51987699159008 32.07616804702195 H 0.0 **** 0.06
7196 C 29.539666481737527 14.177569459229176 205.98724325101534 C 0.0 **** -0.24
7197 H 30.409409241799352 13.521409754693877 205.95645189711064 H 0.0 **** 0.06
7198 H 29.344309016507793 14.473487545942817 207.01881346837257 H 0.0 **** 0.06
7199 H 28.672231634329137 13.649441982914198 205.5903297787358 H 0.0 **** 0.06
7200 H 29.731783493395085 15.065006799503578 205.38488194427157 H 0.0 **** 0.06
7201 C 18.134052662809168 111.55743813366031 145.2893021563791 C 0.0 **** -0.24
7202 H 19.083554289266687 111.75810536310773 145.7859513962449 H 0.0 **** 0.06
7203 H 18.169146583591612 111.94036539015995 144.26946086143164 H 0.0 **** 0.06
7204 H 17.32773563973062 112.04942076467925 145.83448937937146 H 0.0 **** 0.06
7205 H 17.955224945386632 110.48188296943381 145.269229999814 H 0.0 **** 0.06
7206 C 113.12071440334155 184.38514426131673 141.29773803531515 C 0.0 **** -0.24
7207 H 112.27484448906502 184.79753433714137 141.84795222401198 H 0.0 **** 0.06
7208 H 113.92056093457624 184.1365780713624 141.99549839356263 H 0.0 **** 0.06
7209 H 113.48027132686552 185.12143377251985 140.57969437908935 H 0.0 **** 0.06
7210 H 112.80627828629615 183.4852463526093 140.7692696667874 H 0.0 **** 0.06
7211 C 34.463437521186734 123.19352205312623 80.68194747835861 C 0.0 **** -0.24
7212 H 34.960328036415405 122.26134089992985 80.41488712079797 H 0.0 **** 0.06
7213 H 33.69129897912154 123.41705946158305 79.94536126744435 H 0.0 **** 0.06
7214 H 35.193777424746145 124.00262011039456 80.70087102447542 H 0.0 **** 0.06
7215 H 34.00708164991252 123.09253100225862 81.66700852975003 H 0.0 **** 0.06
7216 C 198.38316161557515 112.96171902680423 213.18568589395244 C 0.0 **** -0.24
7217 H 198.40496561010997 111.98204442228739 213.6627816784725 H 0.0 **** 0.06
7218 H 198.18594543121765 113.72758673331255 213.93651316292568 H 0.0 **** 0.06
7219 H 197.59686352845102 112.98131870936923 212.43132172413297 H 0.0 **** 0.06
7220 H 199.3456119006134 113.156516899561 212.71244876936817 H 0.0 **** 0.06
7221 C 173.04018926168393 117.28899047357287 155.84539716683406 C 0.0 **** -0.24
7222 H 173.13490734324446 118.3377997303232 156.12977155757454 H 0.0 **** 0.06
7223 H 172.21932473509673 117.17776248766545 155.13702798436088 H 0.0 **** 0.06
7224 H 172.83873151880854 116.68920847244583 156.73228748993375 H 0.0 **** 0.06
7225 H 173.96799815396233 116.95363105897 155.38257446979156 H 0.0 **** 0.06
7226 C 56.564950994657636 210.1049392647915 138.01567661325367 C 0.0 **** -0.24
7227 H 56.97483590272495 210.13024530486697 139.0261369686395 H 0.0 **** 0.06
7228 H 57.01787988702725 209.28271786762895 137.46044823468986 H 0.0 **** 0.06
7229 H 56.782222958199114 211.0474541174589 137.51285578278106 H 0.0 **** 0.06
7230 H 55.486388329857846 209.95920708568937 138.06603363118091 H 0.0 **** 0.06
7231 C 183.34140814424978 10.692172617766602 26.069807826493445 C 0.0 **** -0.24
7232 H 183.32593982242844 10.698420928912725 24.9802079842662 H 0.0 **** 0.06
7233 H 184.21491613067707 10.138388846705368 26.417033265875602 H 0.0 **** 0.06
7234 H 182.43651802288076 10.212876249450005 26.442538272880086 H 0.0 **** 0.06
7235 H 183.3889721517885 11.71636364115136 26.438732664991107 H 0.0 **** 0.06
7236 C 48.30923228671929 128.92009948656369 39.13025136768377 C 0.0 **** -0.24
7237 H 48.85063553824051 129.82894391827966 38.86958983010004 H 0.0 **** 0.06
7238 H 48.52164575139244 128.6552947742876 40.16603808362407 H 0.0 **** 0.06
7239 H 48.62662142350342 128.10773516183139 38.47553807389055 H 0.0 **** 0.06
7240 H 47.23913459040642 129.08709313403676 39.00986379226627 H 0.0 **** 0.06
7241 C 50.88996816913247 84.52767738780527 75.36277508993635 C 0.0 **** -0.24
7242 H 49.93475162462384 84.58759730751107 74.839508310577 H 0.0 **** 0.06
7243 H 50.90716680352787 83.6340524810709 75.9854715203424 H 0.0 **** 0.06
7244 H 51.01593716599298 85.41093121610056 75.98858306006252 H 0.0 **** 0.06
7245 H 51.69967243529892 84.48022293905863 74.63451811915775 H 0.0 **** 0.06
7246 C 197.7432696427528 132.06774418346515 87.18524535482675 C 0.0 **** -0.24
7247 H 198.51684786874202 131.63757888683796 87.82108391660444 H 0.0 **** 0.06
7248 H 197.45542392955943 133.04444315599517 87.57489533614341 H 0.0 **** 0.06
7249 H 196.87412867544737 131.4101564511201 87.1745923202082 H 0.0 **** 0.06
7250 H 198.12656889542546 132.17998720556932 86.17116778402061 H 0.0 **** 0.06
7251 C 23.104013314966522 24.610386427280503 199.54206219347049 C 0.0 **** -0.24
7252 H 22.94025055663778 24.456000390967887 200.60917833956768 H 0.0 **** 0.06
7253 H 23.675591060639448 23.77476835278344 199.1381742751379 H 0.0 **** 0.06
7254 H 23.6573075173456 25.53735490460977 199.3896282292706 H 0.0 **** 0.06
7255 H 22.14158281252908 24.672823240783714 199.033241669767 H 0.0 **** 0.06
7256 C 174.18490697095373 100.51117071853251 39.728617769473615 C 0.0 **** -0.24
7257 H 174.88474478458446 99.71580558599577 39.47253091938346 H 0.0 **** 0.06
7258 H 174.69013074372387 101.47482460557886 39.661697918884514 H 0.0 **** 0.06
7259 H 173.82132572267977 100.36202316284904 40.745493782309325 H 0.0 **** 0.06
7260 H 173.34458963440724 100.49277893639616 39.035790499924715 H 0.0 **** 0.06
7261 C 136.3182411525325 25.296991692326912 93.25084660647987 C 0.0 **** -0.24
7262 H 136.66285786020393 24.299407618963926 92.97844895858198 H 0.0 **** 0.06
7263 H 136.7336279451073 25.57282222541943 94.21969048059474 H 0.0 **** 0.06
7264 H 135.23015001708978 25.30359218532709 93.30618405540908 H 0.0 **** 0.06
7265 H 136.64811470934143 26.012751148879488 92.49615725496447 H 0.0 **** 0.06
7266 C 91.07436704513702 80.54089576564017 159.67585279887774 C 0.0 **** -0.24
7267 H 90.63075841049675 80.3716929406015 158.69417161992362 H 0.0 **** 0.06
7268 H 92.07679028663438 80.11322917341398 159.7003083021657 H 0.0 **** 0.06
7269 H 90.45775832882578 80.06539476173599 160.4397013775992 H 0.0 **** 0.06
7270 H 91.1304533315137 81.61152854071331 159.86897685812872 H 0.0 **** 0.06
7271 C 155.82399018023597 174.88232387347523 171.68393435289875 C 0.0 **** -0.24
7272 H 155.12065137384593 175.1425709857064 172.47524346369238 H 0.0 **** 0.06
7273 H 156.16464364371632 173.85671154561078 171.82330685614176 H 0.0 **** 0.06
7274 H 156.67928383958247 175.55803698586988 171.72211429011566 H 0.0 **** 0.06
7275 H 155.33170930534533 174.97352407292016 170.7157772383111 H 0.0 **** 0.06
7276 C 157.6363369673344 200.13711079214895 150.36856484223404 C 0.0 **** -0.24
7277 H 156.81429500210066 199.42945718584872 150.47202257640743 H 0.0 **** 0.06
7278 H 157.7584484961784 200.69117209906312 151.29899859639625 H 0.0 **** 0.06
7279 H 157.41825349158313 200.8319190758128 149.5571813369159 H 0.0 **** 0.06
7280 H 158.5556370377754 199.59520714969628 150.14436186428884 H 0.0 **** 0.06
7281 C 97.53238463953471 138.26032175193507 76.60494340028713 C 0.0 **** -0.24
7282 H 96.47409957985099 138.0978335478959 76.8116714092025 H 0.0 **** 0.06
7283 H 97.63713743408584 138.95593519910034 75.77282387354951 H 0.0 **** 0.06
7284 H 98.00090243347029 137.31044503823938 76.3465745758585 H 0.0 **** 0.06
7285 H 98.01539791886853 138.6746678740999 77.48980361371984 H 0.0 **** 0.06
7286 C 170.11948436801958 216.7151331510813 157.91746229679012 C 0.0 **** -0.24
7287 H 170.79577272531463 216.58125802942848 157.0736195189864 H 0.0 **** 0.06
7288 H 169.1676182220598 216.22979071294802 157.7011992643009 H 0.0 **** 0.06
7289 H 169.95397014123674 217.779607800929 158.08572669969982 H 0.0 **** 0.06
7290 H 170.56004280076223 216.27104274072246 158.8104674046566 H 0.0 **** 0.06
7291 C 153.95155514877678 120.78695128458516 24.98394219647878 C 0.0 **** -0.24
7292 H 154.29803704440167 119.9277316267938 24.409220506453636 H 0.0 **** 0.06
7293 H 153.46472113959697 120.440864664931 25.89582696962816 H 0.0 **** 0.06
7294 H 153.24292368520491 121.3602928412772 24.387224486541157 H 0.0 **** 0.06
7295 H 154.80265677976882 121.41663967245192 25.2429203461449 H 0.0 **** 0.06
7296 C 158.37423063374723 106.02670135221206 131.02823766375474 C 0.0 **** -0.24
7297 H 158.97016659591006 106.86665277208971 130.6693336360717 H 0.0 **** 0.06
7298 H 158.0846551278433 105.40060858641232 130.1847022467648 H 0.0 **** 0.06
7299 H 157.48099100802125 106.40243227541413 131.52688019517274 H 0.0 **** 0.06
7300 H 158.96404455311153 105.43908442274119 131.73273893771005 H 0.0 **** 0.06
7301 C 29.665456630151084 139.87704555814253 177.58353390092134 C 0.0 **** -0.24
7302 H 30.526976232486618 140.54091001902515 177.51280847284423 H 0.0 **** 0.06
7303 H 29.11822920360018 140.08850427530444 178.50229093864004 H 0.0 **** 0.06
7304 H 30.005082417170627 138.84107215103552 177.59283824890792 H 0.0 **** 0.06
7305 H 29.0121156039487 140.03709995197698 176.72563924705443 H 0.0 **** 0.06
7306 C 201.44880898628114 214.71993209727526 173.13947751685782 C 0.0 **** -0.24
7307 H 200.5502367807561 214.14675957082392 172.91391076038002 H 0.0 **** 0.06
7308 H 202.2524998664514 214.0383070278016 173.42124408927583 H 0.0 **** 0.06
7309 H 201.246612245883 215.40445196734552 173.96310556241303 H 0.0 **** 0.06
7310 H 201.74725805935827 215.28921533665886 172.25858598089542 H 0.0 **** 0.06
7311 C 101.25453897813115 161.44144077266895 16.655079919217584 C 0.0 **** -0.24
7312 H 101.05897481633285 160.88946485899098 15.734932968309536 H 0.0 **** 0.06
7313 H 101.57725184944313 162.453040725513 16.410047135963154 H 0.0 **** 0.06
7314 H 102.03802986448194 160.93619951780627 17.22031566719417 H 0.0 **** 0.06
7315 H 100.34436508952562 161.48325515753194 17.253201297524612 H 0.0 **** 0.06
7316 C 174.8024718112045 173.4585017887347 207.90013542823039 C 0.0 **** -0.24
7317 H 175.0125210404612 173.88823996061865 206.9203223981622 H 0.0 **** 0.06
7318 H 173.84672252320593 172.93410031715737 207.86888556005496 H 0.0 **** 0.06
7319 H 174.7571466951801 174.2549978919344 208.64312919324186 H 0.0 **** 0.06
7320 H 175.59314511508222 172.75717709447537 208.16605558574955 H 0.0 **** 0.06
7321 C 182.89252378374258 0.3784838294347992 65.82709566043121 C 0.0 **** -0.24
7322 H 182.8410293957728 0.16454476433574428 66.89484401466481 H 0.0 **** 0.06
7323 H 182.91982268974385 1.4576702705135745 65.67358492393913 H 0.0 **** 0.06
7324 H 182.01460253058076 -0.037273555309695894 65.33116095556463 H 0.0 **** 0.06
7325 H 183.79238502053425 -0.07184496520903849 65.40925017271883 H 0.0 **** 0.06
7326 C 128.30124339473218 34.68260459891874 180.05413731792925 C 0.0 **** -0.24
7327 H 129.3324435841896 34.97731101763523 180.2443067257458 H 0.0 **** 0.06
7328 H 127.89065940665706 34.2025876816448 180.94261167843058 H 0.0 **** 0.06
7329 H 128.270976556596 33.985279836385956 179.21646599589607 H 0.0 **** 0.06
7330 H 127.70983823602332 35.56562360885475 179.81230576358325 H 0.0 **** 0.06
7331 C 204.98734119676317 14.737066119981108 129.35660447694136 C 0.0 **** -0.24
7332 H 204.81385023029014 14.254584067361222 130.3193417817423 H 0.0 **** 0.06
7333 H 204.5790250524355 15.747017291482592 129.37771557131202 H 0.0 **** 0.06
7334 H 204.4977986126062 14.163218734991503 128.57005036848932 H 0.0 **** 0.06
7335 H 206.05926304509842 14.781750558909465 129.16150192653254 H 0.0 **** 0.06
7336 C 216.82921895733273 189.97358774758064 101.49758961479374 C 0.0 **** -0.24
7337 H 217.12686590170244 189.0707695332681 102.03122123936801 H 0.0 **** 0.06
7338 H 215.78027076396472 190.18700357301574 101.70407330917133 H 0.0 **** 0.06
7339 H 216.96783759856663 189.82500026275468 100.42730145433755 H 0.0 **** 0.06
7340 H 217.44336448040912 190.8107570854935 101.83110712924027 H 0.0 **** 0.06
7341 C 37.06185739721384 76.41842283076515 119.04648376998846 C 0.0 **** -0.24
7342 H 37.752961100985175 75.770953710353 118.50715776578703 H 0.0 **** 0.06
7343 H 37.41106088592784 76.54930182027967 120.07163633549605 H 0.0 **** 0.06
7344 H 36.07085948948466 75.96482271945841 119.05566088104187 H 0.0 **** 0.06
7345 H 37.01369332461141 77.38869177104313 118.55230613009401 H 0.0 **** 0.06
7346 C 201.16834182616404 78.88644725870121 37.389488155288845 C 0.0 **** -0.24
7347 H 201.35647214246256 79.61785609544528 38.175127528949716 H 0.0 **** 0.06
7348 H 201.13215889850676 79.39136396561138 36.423371662624234 H 0.0 **** 0.06
7349 H 200.21545573036315 78.389797885992 37.5764069903708 H 0.0 **** 0.06
7350 H 201.96850125016044 78.14559275596035 37.38311190545062 H 0.0 **** 0.06
7351 C 128.3901334389061 158.35248948677383 122.80887630739612 C 0.0 **** -0.24
7352 H 128.75967705146292 159.37069342766225 122.68954743274948 H 0.0 **** 0.06
7353 H 127.3118462566984 158.37345585325312 122.96834827614948 H 0.0 **** 0.06
7354 H 128.8766938497974 157.8881776849624 123.66728452751308 H 0.0 **** 0.06
7355 H 128.61353918945179 157.77813857375446 121.90982734566752 H 0.0 **** 0.06
7356 C 108.58574884194967 82.99040409153439 16.327158343708263 C 0.0 **** -0.24
7357 H 108.51886459263916 82.3498914211183 15.448497925584505 H 0.0 **** 0.06
7358 H 109.63306489049374 83.14251993196005 16.586860078863495 H 0.0 **** 0.06
7359 H 108.06841295806906 82.51809536354556 17.16217042919706 H 0.0 **** 0.06
7360 H 108.1211573270108 83.95304936527243 16.111132983095885 H 0.0 **** 0.06
7361 C 191.336097029688 134.76773553920515 154.98749771631344 C 0.0 **** -0.24
7362 H 190.54007678681376 134.24294845427193 154.45903822992437 H 0.0 **** 0.06
7363 H 191.15196280958733 135.84151153853406 154.9474747767939 H 0.0 **** 0.06
7364 H 192.29327138638317 134.54357020909038 154.51706356981026 H 0.0 **** 0.06
7365 H 191.35754556733042 134.44191402785214 156.02722577308344 H 0.0 **** 0.06
7366 C 101.25723879432259 78.73607638745692 2.966879640471234 C 0.0 **** -0.24
7367 H 102.05657738380494 79.46457016768532 3.1039663790106715 H 0.0 **** 0.06
7368 H 100.34406835567363 79.25040495961544 2.6692103807671117 H 0.0 **** 0.06
7369 H 101.08691510187502 78.20454367198342 3.9034755831240773 H 0.0 **** 0.06
7370 H 101.54342564641827 78.02450623614062 2.1922060663964658 H 0.0 **** 0.06
7371 C 159.6392944850934 97.5843851790944 192.96228279736044 C 0.0 **** -0.24
7372 H 159.93877402876169 98.30452039266754 193.72375795399734 H 0.0 **** 0.06
7373 H 158.83616548135942 96.95819895293249 193.35121178198335 H 0.0 **** 0.06
7374 H 160.49219620707535 96.95943308145746 192.69842742620625 H 0.0 **** 0.06
7375 H 159.29055105664614 98.116483980493 192.07786490760054 H 0.0 **** 0.06
7376 C 204.26842567449165 179.93777158747645 177.39199499982374 C 0.0 **** -0.24
7377 H 204.59107067538255 179.49606892682323 176.44881468234053 H 0.0 **** 0.06
7378 H 203.76534458733244 179.18119400331074 177.99410621417763 H 0.0 **** 0.06
7379 H 203.58157257880922 180.76023910331946 177.19096227610424 H 0.0 **** 0.06
7380 H 205.136680875912 180.31454646435856 177.93161867950528 H 0.0 **** 0.06
7381 C 213.92913832993787 177.85095988271695 172.94761302947532 C 0.0 **** -0.24
7382 H 213.99771105936208 176.8556663398134 172.51015028035016 H 0.0 **** 0.06
7383 H 214.5768267883504 177.90970970438684 173.82209244521826 H 0.0 **** 0.06
7384 H 212.89797786210727 178.04597926980023 173.2450364539477 H 0.0 **** 0.06
7385 H 214.2417359306471 178.59253751818994 172.21233655741145 H 0.0 **** 0.06
7386 C 13.15264059571848 57.769983187207345 170.66863011245954 C 0.0 **** -0.24
7387 H 14.059739405409346 57.77899182861634 171.2729030058574 H 0.0 **** 0.06
7388 H 12.82616360575065 56.74024375692974 170.51834491121681 H 0.0 **** 0.06
7389 H 13.354586220240776 58.233274632342386 169.70292408230367 H 0.0 **** 0.06
7390 H 12.369025340560825 58.32712592524547 171.18230144869324 H 0.0 **** 0.06
7391 C 94.94795142784854 51.31435080547449 98.60691402177957 C 0.0 **** -0.24
7392 H 94.03637786802678 51.657327608871256 98.11647573674554 H 0.0 **** 0.06
7393 H 94.68816142784804 50.76532039442924 99.51214046012257 H 0.0 **** 0.06
7394 H 95.56502810733902 52.174755726292005 98.8667098810941 H 0.0 **** 0.06
7395 H 95.50012403499433 50.66180768041629 97.93052432615838 H 0.0 **** 0.06
7396 C 215.2746799416412 199.60106701554068 152.38838483100233 C 0.0 **** -0.24
7397 H 215.028795087398 200.48998632725915 151.80827258624674 H 0.0 **** 0.06
7398 H 216.2746743165294 199.25893113454057 152.12259841531812 H 0.0 **** 0.06
7399 H 214.55190774734874 198.8145791592461 152.17106859785753 H 0.0 **** 0.06
7400 H 215.24235674237593 199.8406549476085 153.4517201439013 H 0.0 **** 0.06
7401 C 69.45480909659787 92.4064148087188 132.5035874469769 C 0.0 **** -0.24
7402 H 70.52242179293478 92.38205044216879 132.72075704801 H 0.0 **** 0.06
7403 H 69.29468244500595 92.1900335955407 131.44629193457968 H 0.0 **** 0.06
7404 H 69.05950267483254 93.39451254664986 132.73709079460457 H 0.0 **** 0.06
7405 H 68.94411843878132 91.65718762958899 133.10969292178402 H 0.0 **** 0.06
7406 C 52.10080810949978 119.59492507290362 101.17017544826514 C 0.0 **** -0.24
7407 H 51.961560705250974 120.29523637274856 100.34581666578306 H 0.0 **** 0.06
7408 H 51.41036237109927 118.7588984664978 101.05563137908372 H 0.0 **** 0.06
7409 H 51.905255751567836 120.10258313949221 102.11459256778595 H 0.0 **** 0.06
7410 H 53.12559689541189 119.22439155468815 101.16205242557758 H 0.0 **** 0.06
7411 C 152.59105685017306 203.7276627971737 44.9455667976666 C 0.0 **** -0.24
7412 H 153.4326053773948 204.26710962803406 44.51093669079853 H 0.0 **** 0.06
7413 H 152.92395121422493 202.7474008943679 45.28729488820056 H 0.0 **** 0.06
7414 H 151.81147795502415 203.60594086893246 44.194403278109974 H 0.0 **** 0.06
7415 H 152.19569196627998 204.29190821943195 45.79054363661578 H 0.0 **** 0.06
7416 C 131.9556513736157 170.31950153478732 133.39528571595025 C 0.0 **** -0.24
7417 H 131.92604120845084 169.5627547871653 134.18043714528773 H 0.0 **** 0.06
7418 H 132.79371146990422 170.99286118621595 133.57144805378545 H 0.0 **** 0.06
7419 H 131.02486500630022 170.88728771777792 133.4042711337566 H 0.0 **** 0.06
7420 H 132.076416146636 169.83332589133704 132.42730470002692 H 0.0 **** 0.06
7421 C 34.86373876538583 111.19352654345114 140.51679591602323 C 0.0 **** -0.24
7422 H 35.55015813086895 111.89191076789469 140.0380224132378 H 0.0 **** 0.06
7423 H 34.59843404758867 110.40460866412162 139.81285264654957 H 0.0 **** 0.06
7424 H 33.962121651274074 111.72452562143344 140.82492206618156 H 0.0 **** 0.06
7425 H 35.343705235456426 110.75496182084267 141.39170294507375 H 0.0 **** 0.06
7426 C 91.18883731768624 203.98354287608677 10.895553326639657 C 0.0 **** -0.24
7427 H 90.44997564584826 204.2990032335233 10.15794004502834 H 0.0 **** 0.06
7428 H 92.16207852009795 203.88593626195086 10.414617108253736 H 0.0 **** 0.06
7429 H 90.89302708794388 203.02196007572135 11.316215875038438 H 0.0 **** 0.06
7430 H 91.24763141862296 204.72526334257643 11.691704147209123 H 0.0 **** 0.06
7431 C 135.0112152531833 213.3834235248842 21.656820182197293 C 0.0 **** -0.24
7432 H 135.10967679355542 213.48745553632418 22.737886239977342 H 0.0 **** 0.06
7433 H 133.9700576432836 213.18300001135094 21.404698431532665 H 0.0 **** 0.06
7434 H 135.63438744200732 212.5569224775065 21.313654628573374 H 0.0 **** 0.06
7435 H 135.33289271798287 214.30601115547447 21.17310764567344 H 0.0 **** 0.06
7436 C 61.012033142934456 82.85630271261402 121.14127831095594 C 0.0 **** -0.24
7437 H 62.024927236747544 83.22632284685545 120.98094802795667 H 0.0 **** 0.06
7438 H 60.58110679739525 82.55577032006425 120.18654227788464 H 0.0 **** 0.06
7439 H 60.40321110520034 83.64538477506 121.58344499222163 H 0.0 **** 0.06
7440 H 61.04096661999665 81.99964731474387 121.81406765908967 H 0.0 **** 0.06
7441 C 211.75587816713607 166.08766003748684 157.4585257100129 C 0.0 **** -0.24
7442 H 212.40691904364414 166.95946929977958 157.39203866053634 H 0.0 **** 0.06
7443 H 211.44540635876518 165.94434900298523 158.4930276789299 H 0.0 **** 0.06
7444 H 212.2940600278671 165.20480094108993 157.11404315407628 H 0.0 **** 0.06
7445 H 210.87605963023833 166.2435436654896 156.8326392926748 H 0.0 **** 0.06
7446 C 206.20099764813776 57.95748176820638 181.42270568081773 C 0.0 **** -0.24
7447 H 207.2514312785039 58.05637437005703 181.152432584566 H 0.0 **** 0.06
7448 H 206.02113111326813 56.958991636281155 181.82273648468393 H 0.0 **** 0.06
7449 H 205.58217423690087 58.111683428416484 180.53827502524422 H 0.0 **** 0.06
7450 H 205.94764893393847 58.70227125052219 182.17761574452962 H 0.0 **** 0.06
7451 C 176.53119703104227 200.68089659923928 111.91142992393561 C 0.0 **** -0.24
7452 H 176.80770847577656 199.99716470813723 112.7139922317114 H 0.0 **** 0.06
7453 H 175.76356793549405 201.3679506653384 112.26682324140909 H 0.0 **** 0.06
7454 H 176.1461622978752 200.1108833636432 111.0659872591679 H 0.0 **** 0.06
7455 H 177.4093142457559 201.2458302853071 111.59789167786404 H 0.0 **** 0.06
7456 C 153.94489601080653 56.55240476208678 56.46290838288144 C 0.0 **** -0.24
7457 H 154.3498264658204 56.21282725055761 57.41592494469495 H 0.0 **** 0.06
7458 H 154.39111109039862 57.51227739787362 56.19945479598243 H 0.0 **** 0.06
7459 H 152.8634450862487 56.666614271360515 56.54817415588815 H 0.0 **** 0.06
7460 H 154.17360186843996 55.81982298146505 55.689400342589295 H 0.0 **** 0.06
7461 C 113.33738084030354 107.35889067175974 31.953711645770852 C 0.0 **** -0.24
7462 H 113.39660159826515 108.44710185310403 31.915929628379843 H 0.0 **** 0.06
7463 H 112.44980587270761 107.06363285205019 32.514903826737054 H 0.0 **** 0.06
7464 H 114.22629481129091 106.96451504681052 32.44590058582162 H 0.0 **** 0.06
7465 H 113.27607020084311 106.96288343387853 30.940725769125294 H 0.0 **** 0.06
7466 C 205.26708463067598 129.4328464552279 113.71064736539769 C 0.0 **** -0.24
7467 H 205.13493970412964 128.75469001258523 112.86736941555894 H 0.0 **** 0.06
7468 H 205.83738499633003 130.3051662395671 113.38911533235843 H 0.0 **** 0.06
7469 H 205.80626721143307 128.91979902653793 114.50734657257702 H 0.0 **** 0.06
7470 H 204.29174726240734 129.7504396086191 114.07667702285987 H 0.0 **** 0.06
7471 C 173.92550214442159 138.07141100863043 86.71880321949271 C 0.0 **** -0.24
7472 H 173.59224761647386 138.45696974745522 87.6820581214912 H 0.0 **** 0.06
7473 H 173.83459598007624 138.85178708246008 85.96346065873229 H 0.0 **** 0.06
7474 H 173.30833053733716 137.21801031067173 86.43670464778393 H 0.0 **** 0.06
7475 H 174.96727547389992 137.7577119918036 86.79365917331876 H 0.0 **** 0.06
7476 C 20.64530176703731 209.5688992864761 6.96396513041509 C 0.0 **** -0.24
7477 H 19.720712909330686 209.84259582144807 6.455430183386383 H 0.0 **** 0.06
7478 H 20.842630811040436 210.28009675527468 7.766058981098155 H 0.0 **** 0.06
7479 H 21.469832239793007 209.58604567450027 6.2511919273402725 H 0.0 **** 0.06
7480 H 20.546488867257366 208.56673967222338 7.381911617807731 H 0.0 **** 0.06
7481 C 150.09737503349845 106.57990463559145 67.3986325023294 C 0.0 **** -0.24
7482 H 150.25242810374448 105.90670989007333 68.24141272673705 H 0.0 **** 0.06
7483 H 149.05730195253756 106.52661370195659 67.07848693845085 H 0.0 **** 0.06
7484 H 150.7479009997213 106.28510289595022 66.57480239250305 H 0.0 **** 0.06
7485 H 150.33399897703646 107.60039768276943 67.70074042380838 H 0.0 **** 0.06
7486 C 37.16940861527701 51.622777093902585 215.20639162974305 C 0.0 **** -0.24
7487 H 37.13042067913669 50.5349118640533 215.2703864382363 H 0.0 **** 0.06
7488 H 37.45793815401065 52.03209258146103 216.17526040165575 H 0.0 **** 0.06
7489 H 36.188403642293466 52.00538809312411 214.9273554710757 H 0.0 **** 0.06
7490 H 37.90215777886033 51.915645133419844 214.45499686163583 H 0.0 **** 0.06
7491 C 100.00333496179486 202.10122347251666 87.28159388051932 C 0.0 **** -0.24
7492 H 100.54093643632133 202.6364110778518 88.06449938125576 H 0.0 **** 0.06
7493 H 100.68156006628 201.40868058578297 86.78408792312666 H 0.0 **** 0.06
7494 H 99.61414521634983 202.8145432111928 86.55512610545134 H 0.0 **** 0.06
7495 H 99.17637856955714 201.54572682190974 87.72429890484523 H 0.0 **** 0.06
7496 C 54.54421695759041 56.59320302710677 101.59233100857874 C 0.0 **** -0.24
7497 H 55.34585025093179 55.887492812150754 101.37320022196262 H 0.0 **** 0.06
7498 H 54.59604259728333 56.88864567805308 102.64027131248822 H 0.0 **** 0.06
7499 H 53.58168935527375 56.12209415195417 101.39422959143472 H 0.0 **** 0.06
7500 H 54.654266720717914 57.474421331179656 100.95961977765357 H 0.0 **** 0.06
7501 C 121.5259399800937 111.92149925258627 109.6474496014127 C 0.0 **** -0.24
7502 H 121.19409699803536 112.4882620755696 108.77813708196673 H 0.0 **** 0.06
7503 H 120.67721740012742 111.73692505728036 110.3057439727652 H 0.0 **** 0.06
7504 H 122.2852224254644 112.49014907733726 110.18425280594583 H 0.0 **** 0.06
7505 H 121.94673769082691 110.96981974740606 109.32142573896421 H 0.0 **** 0.06
7506 C 17.41564817583513 190.64274714654144 163.10980505291258 C 0.0 **** -0.24
7507 H 17.41131448057685 191.02738408237175 164.1302519173957 H 0.0 **** 0.06
7508 H 18.056738682347742 191.26874423502693 162.48806172411975 H 0.0 **** 0.06
7509 H 16.40094744253514 190.6540982549941 162.71331584586216 H 0.0 **** 0.06
7510 H 17.794672484916035 189.62101644496968 163.10953188716218 H 0.0 **** 0.06
7511 C 44.3889182220485 87.6573330838642 156.51120368442548 C 0.0 **** -0.24
7512 H 43.74513794119035 88.51640076479971 156.3248551118242 H 0.0 **** 0.06
7513 H 44.44951286321769 87.04627722382112 155.61040117062402 H 0.0 **** 0.06
7514 H 43.975232421249046 87.06365926557719 157.32635065979503 H 0.0 **** 0.06
7515 H 45.38589778766348 88.00410518044255 156.78407729109193 H 0.0 **** 0.06
7516 C 109.86268923470534 173.93671484595424 92.90531740574129 C 0.0 **** -0.24
7517 H 110.82795320220298 173.69462100692434 93.35215654360967 H 0.0 **** 0.06
7518 H 109.44637566001084 173.04501739621034 92.4361246836615 H 0.0 **** 0.06
7519 H 109.99710408584066 174.71440298570639 92.15324364063464 H 0.0 **** 0.06
7520 H 109.18271907225399 174.29229739760535 93.67929464011881 H 0.0 **** 0.06
7521 C 39.477336208267744 71.31716987290203 177.44072454981756 C 0.0 **** -0.24
7522 H 38.73375051847523 70.67947567053692 176.9630881230069 H 0.0 **** 0.06
7523 H 39.979553239054866 70.7606263538927 178.2316376246805 H 0.0 **** 0.06
7524 H 38.98587826387056 72.19205951503095 177.8680281470387 H 0.0 **** 0.06
7525 H 40.210258869755364 71.63790820463028 176.70038514635223 H 0.0 **** 0.06
7526 C 88.48447642773687 167.2762669867715 24.03954239816352 C 0.0 **** -0.24
7527 H 88.51908105899639 168.28276305439852 23.621661631938196 H 0.0 **** 0.06
7528 H 89.05313550032919 166.59949886550217 23.402567603302884 H 0.0 **** 0.06
7529 H 87.44926430544393 166.9413424083232 24.095609378474194 H 0.0 **** 0.06
7530 H 88.91840175179107 167.2843722187032 25.039608526764 H 0.0 **** 0.06
7531 C 189.90827463509518 78.1196867827893 115.13752739436013 C 0.0 **** -0.24
7532 H 188.91552607951533 77.8281561882473 115.48025374698487 H 0.0 **** 0.06
7533 H 189.8204301584365 78.94634085699647 114.43185003018603 H 0.0 **** 0.06
7534 H 190.3864482228815 77.27185465068482 114.64600237087858 H 0.0 **** 0.06
7535 H 190.50993882017767 78.43176685638542 115.99026143636088 H 0.0 **** 0.06
7536 C 51.35352747739596 2.8919772452794916 128.27872483344146 C 0.0 **** -0.24
7537 H 52.25650795333898 3.4953688866094126 128.1914556726815 H 0.0 **** 0.06
7538 H 50.650228681570965 3.176633113609711 127.49552243726522 H 0.0 **** 0.06
7539 H 50.89737755386247 3.0572657940091403 129.2539832877987 H 0.0 **** 0.06
7540 H 51.609999596475774 1.8384835366658763 128.17077956604925 H 0.0 **** 0.06
7541 C 19.372893722688246 126.25891236878287 58.69451225671469 C 0.0 **** -0.24
7542 H 18.313690098003747 126.10178989826578 58.90009766548906 H 0.0 **** 0.06
7543 H 19.49348497766914 126.64852944495 57.68433633255506 H 0.0 **** 0.06
7544 H 19.90398280186713 125.31132173633704 58.7857784799798 H 0.0 **** 0.06
7545 H 19.778580698704275 126.9731177439803 59.410808906331965 H 0.0 **** 0.06
7546 C 107.96106840236983 151.6770171080098 32.59939446173763 C 0.0 **** -0.24
7547 H 108.80526292761179 151.6382182349842 33.28860009565835 H 0.0 **** 0.06
7548 H 108.21766575158021 151.14364554782395 31.68292201141108 H 0.0 **** 0.06
7549 H 107.73137261078595 152.71609265297178 32.36341142791383 H 0.0 **** 0.06
7550 H 107.09284029593105 151.2078232674438 33.061911735082305 H 0.0 **** 0.06
7551 C 182.63310091199844 92.83125765704945 184.76574628976044 C 0.0 **** -0.24
7552 H 182.75443850226088 93.91029285426792 184.68036280790128 H 0.0 **** 0.06
7553 H 183.59878804972715 92.3447718214387 184.6271424441914 H 0.0 **** 0.06
7554 H 181.93663385107635 92.48191232941782 184.00379773210494 H 0.0 **** 0.06
7555 H 182.24157019745525 92.58762308926238 185.75388851138763 H 0.0 **** 0.06
7556 C 58.95765468017942 87.94456903548435 154.9244098745811 C 0.0 **** -0.24
7557 H 58.752946831498605 88.97597006290748 155.21154704499844 H 0.0 **** 0.06
7558 H 59.72585399537172 87.53198143655989 155.57819150226885 H 0.0 **** 0.06
7559 H 59.30584854085026 87.9175537148598 153.89206335435648 H 0.0 **** 0.06
7560 H 58.046539841861886 87.35467999100986 155.0160110532866 H 0.0 **** 0.06
7561 C 4.796208999231737 90.91804020153377 2.5436160323343984 C 0.0 **** -0.24
7562 H 5.866413784489566 91.11001788339307 2.4780309982397455 H 0.0 **** 0.06
7563 H 4.427027475550432 90.58324059149912 1.572812547153859 H 0.0 **** 0.06
7564 H 4.279545425583194 91.83303182251096 2.83357331188256 H 0.0 **** 0.06
7565 H 4.611033041894871 90.14435460003678 3.288620453984578 H 0.0 **** 0.06
7566 C 143.9548680512699 2.4259923781521877 194.41294286790534 C 0.0 **** -0.24
7567 H 143.7014361469342 3.48656440094112 194.41504214885998 H 0.0 **** 0.06
7568 H 143.8317469390547 2.0248706343647314 193.40686698732583 H 0.0 **** 0.06
7569 H 143.29639640580598 1.8945263015166347 195.09919137909526 H 0.0 **** 0.06
7570 H 144.9894738936112 2.2999582599859707 194.73052320827333 H 0.0 **** 0.06
7571 C 155.3774659944446 110.06272521204255 109.79820053656509 C 0.0 **** -0.24
7572 H 154.81335365346064 110.5045271420152 110.61951500485516 H 0.0 **** 0.06
7573 H 156.2424140955696 110.68696373865032 109.57368286941367 H 0.0 **** 0.06
7574 H 154.74005963528225 109.99263950372927 108.9174240358622 H 0.0 **** 0.06
7575 H 155.71349188429247 109.06567027173702 110.08472837368141 H 0.0 **** 0.06
7576 C 203.9416437735488 69.92233315685246 65.09630982497657 C 0.0 **** -0.24
7577 H 203.8029725563236 68.94571522710174 65.55908496876941 H 0.0 **** 0.06
7578 H 204.3634248780857 70.61373250714496 65.82703877975337 H 0.0 **** 0.06
7579 H 202.97945741020956 70.30048684811328 64.75093564474037 H 0.0 **** 0.06
7580 H 204.62123110269096 69.82960286033159 64.2494826398061 H 0.0 **** 0.06
7581 C 60.266627939835814 6.9185626576050225 21.261945787184914 C 0.0 **** -0.24
7582 H 60.294988888011574 6.303968877985312 22.161640889581065 H 0.0 **** 0.06
7583 H 59.71190550415548 6.396452731985619 20.482355265722504 H 0.0 **** 0.06
7584 H 61.28450141850783 7.108032536401666 20.920136052225132 H 0.0 **** 0.06
7585 H 59.77654411222369 7.866245280506988 21.485589763608687 H 0.0 **** 0.06
7586 C 121.88933378874043 165.79182207120965 130.8585563102174 C 0.0 **** -0.24
7587 H 122.02778113308841 165.43267300634588 129.83890420564143 H 0.0 **** 0.06
7588 H 122.63499963998169 166.55713463763658 131.07802220928437 H 0.0 **** 0.06
7589 H 122.00428247147522 164.9612386058025 131.55491472526296 H 0.0 **** 0.06
7590 H 120.89115802552442 166.21757698564093 130.96172625739246 H 0.0 **** 0.06
7591 C 172.65488349907255 20.793541878599683 55.5850926631791 C 0.0 **** -0.24
7592 H 171.62889549742204 21.107815917229857 55.77954986910436 H 0.0 **** 0.06
7593 H 173.31960977392256 21.653453829303658 55.67055354239477 H 0.0 **** 0.06
7594 H 172.72310098278922 20.37848191939065 54.579525290152276 H 0.0 **** 0.06
7595 H 172.94644890752645 20.035827119867946 56.31164828761143 H 0.0 **** 0.06
7596 C 210.50065102780383 111.02796489267962 146.9033177262532 C 0.0 **** -0.24
7597 H 209.5596724466066 111.51565956649551 147.15757615515525 H 0.0 **** 0.06
7598 H 210.47868943620963 109.99461891748257 147.25006825301898 H 0.0 **** 0.06
7599 H 211.3240077082381 111.55475852774686 147.3827938282908 H 0.0 **** 0.06
7600 H 210.6376102188528 111.04548790958017 145.82225655560148 H 0.0 **** 0.06
7601 C 214.51762158850408 19.779435974709912 104.57187219793751 C 0.0 **** -0.24
7602 H 215.37675427495535 20.419575564607896 104.77469597567342 H 0.0 **** 0.06
7603 H 214.6057758452528 18.858632513789985 105.14813510990403 H 0.0 **** 0.06
7604 H 214.48634772715812 19.54163523516968 103.50884779504922 H 0.0 **** 0.06
7605 H 213.60317058402285 20.3000321500852 104.85480170414077 H 0.0 **** 0.06
7606 C 96.49336605345066 175.40725167175606 172.50751827963637 C 0.0 **** -0.24
7607 H 96.98046277310813 176.1971289806875 171.93756326047452 H 0.0 **** 0.06
7608 H 96.61099001281691 175.60359639714693 173.574423867419 H 0.0 **** 0.06
7609 H 96.94908152531168 174.4475906118034 172.26279148828354 H 0.0 **** 0.06
7610 H 95.43290630077597 175.3790870725542 172.2576243019186 H 0.0 **** 0.06
7611 C 111.96850520982706 207.01164508611154 71.58992518677708 C 0.0 **** -0.24
7612 H 111.10631646952378 207.67427377500965 71.66280815850523 H 0.0 **** 0.06
7613 H 112.63775975586942 207.19243013318146 72.43236705014063 H 0.0 **** 0.06
7614 H 112.49765290954637 207.206770486542 70.65696112891068 H 0.0 **** 0.06
7615 H 111.63297559208804 205.97539624441532 71.6081000861869 H 0.0 **** 0.06
7616 C 107.02563128837177 37.00135442107859 144.24847233456302 C 0.0 **** -0.24
7617 H 107.16516307844451 38.081822571175394 144.21946222597518 H 0.0 **** 0.06
7618 H 107.41525352091135 36.61014795454861 145.1880505088174 H 0.0 **** 0.06
7619 H 107.55861743898215 36.543996088628035 143.4146976280462 H 0.0 **** 0.06
7620 H 105.96310780822141 36.769250618806495 144.17033252488278 H 0.0 **** 0.06
7621 C 193.80393615590333 59.96678564284103 73.08852575301499 C 0.0 **** -0.24
7622 H 194.2466134178 59.522960111538254 72.19626464061987 H 0.0 **** 0.06
7623 H 193.36104320445529 60.930705503500235 72.83272599350768 H 0.0 **** 0.06
7624 H 194.57507045717816 60.109882540542216 73.8440257640567 H 0.0 **** 0.06
7625 H 193.03079172233882 59.30462162836746 73.47825981555921 H 0.0 **** 0.06
7626 C 173.61808730656549 183.92939872422022 120.50009366259967 C 0.0 **** -0.24
7627 H 173.6388929574108 182.92659003771126 120.07325528299735 H 0.0 **** 0.06
7628 H 173.59287178889917 183.86022006387213 121.58795516122491 H 0.0 **** 0.06
7629 H 172.73119791997925 184.45555305115403 120.14803832009427 H 0.0 **** 0.06
7630 H 174.51010152035383 184.47430100686904 120.19033684002689 H 0.0 **** 0.06
7631 C 68.85865841281856 7.080533843406386 66.30389533887615 C 0.0 **** -0.24
7632 H 69.30083153759756 7.460428146331537 67.22440952529945 H 0.0 **** 0.06
7633 H 69.53320426578517 6.355623652992733 65.84767800703753 H 0.0 **** 0.06
7634 H 68.69122007688082 7.906916183928104 65.61304458107617 H 0.0 **** 0.06
7635 H 67.90643483817706 6.5986131034436255 66.53062830877599 H 0.0 **** 0.06
7636 C 62.74052361086916 124.82654615880942 103.25051151139586 C 0.0 **** -0.24
7637 H 63.31710611237315 123.93156333659952 103.01856865434583 H 0.0 **** 0.06
7638 H 62.11141705537486 124.63851339889742 104.11992380781432 H 0.0 **** 0.06
7639 H 62.11307145912309 125.08512432786769 102.39720542658422 H 0.0 **** 0.06
7640 H 63.420510690031165 125.65097898813129 103.4641121010476 H 0.0 **** 0.06
7641 C 202.88348405931634 22.417891474424863 0.4111933652544906 C 0.0 **** -0.24
7642 H 202.64632346401095 21.87162539871366 -0.5012924424809739 H 0.0 **** 0.06
7643 H 202.38951526511062 21.94177506496152 1.2587275220692504 H 0.0 **** 0.06
7644 H 202.5365246127871 23.447123735063116 0.3195351263229327 H 0.0 **** 0.06
7645 H 203.9626729194522 22.411835757744598 0.5682025689383181 H 0.0 **** 0.06
7646 C 133.17865855243474 34.112334774682154 142.09757038395367 C 0.0 **** -0.24
7647 H 133.48734385458806 33.473390385565665 142.92437905127258 H 0.0 **** 0.06
7648 H 132.09209648876424 34.08802878018082 142.00565050887883 H 0.0 **** 0.06
7649 H 133.62952507876292 33.75269767951903 141.17239057444363 H 0.0 **** 0.06
7650 H 133.5045870263781 35.13445360075468 142.28737252544875 H 0.0 **** 0.06
7651 C 10.576639006584813 191.195847140435 35.450405657215754 C 0.0 **** -0.24
7652 H 11.043416038431559 190.25941189090398 35.75724336163131 H 0.0 **** 0.06
7653 H 11.307614099864622 191.81137809456752 34.92731085450578 H 0.0 **** 0.06
7654 H 10.216663421107015 191.72687853505894 36.331096497994764 H 0.0 **** 0.06
7655 H 9.738154373012762 190.98260354531558 34.78764112911915 H 0.0 **** 0.06
7656 C 149.72221097310438 95.61994258249108 214.89353556599568 C 0.0 **** -0.24
7657 H 150.01207251109378 96.34813254975187 215.6514595777915 H 0.0 **** 0.06
7658 H 148.63430459273633 95.57595112326662 214.83002478288464 H 0.0 **** 0.06
7659 H 150.11006775503125 94.63825033251653 215.16558258532262 H 0.0 **** 0.06
7660 H 150.13135078233773 95.91807502381995 213.92865433675104 H 0.0 **** 0.06
7661 C 47.142684417368 137.4451153325727 46.399830720910586 C 0.0 **** -0.24
7662 H 46.90180153435193 138.21537988139767 45.66730830140307 H 0.0 **** 0.06
7663 H 47.571483871190196 136.58135921606197 45.88988801024351 H 0.0 **** 0.06
7664 H 46.23460510335889 137.14528911880274 46.92329451594438 H 0.0 **** 0.06
7665 H 47.863208597596326 137.8384287629703 47.11662537775811 H 0.0 **** 0.06
7666 C 36.05778475778631 24.055850660368193 9.772158019787327 C 0.0 **** -0.24
7667 H 36.70925180579387 24.456921020801445 8.995670808275705 H 0.0 **** 0.06
7668 H 35.04146115926416 23.97271586042119 9.386073705074281 H 0.0 **** 0.06
7669 H 36.06556252296137 24.724978831645913 10.633050665500448 H 0.0 **** 0.06
7670 H 36.41403053628859 23.071068636113367 10.073520653330661 H 0.0 **** 0.06
7671 C 56.63397482346764 143.84990842369348 209.22381694458366 C 0.0 **** -0.24
7672 H 56.64893495651785 143.8697656980596 210.3144090094962 H 0.0 **** 0.06
7673 H 57.453629026125554 143.23000770544678 208.8615418950115 H 0.0 **** 0.06
7674 H 56.74723324971933 144.86407448694348 208.84120767166448 H 0.0 **** 0.06
7675 H 55.68468892038055 143.436426592948 208.8820579649021 H 0.0 **** 0.06
7676 C 126.97971896200784 208.51760299112144 44.08336208952784 C 0.0 **** -0.24
7677 H 126.47848423444543 207.62670436168816 44.46020356418427 H 0.0 **** 0.06
7678 H 127.94237389068525 208.23880989396758 43.65494053104288 H 0.0 **** 0.06
7679 H 127.13543608664872 209.22020713409728 44.901743861284615 H 0.0 **** 0.06
7680 H 126.36181811077495 208.98459623368356 43.31592153889045 H 0.0 **** 0.06
7681 C 68.45243177753396 195.93066746178573 162.27604986403264 C 0.0 **** -0.24
7682 H 68.99768260298079 196.28005233630066 161.3994285781258 H 0.0 **** 0.06
7683 H 68.63437748525531 196.60802008124517 163.11057387750313 H 0.0 **** 0.06
7684 H 68.7912435923701 194.9291875985609 162.53852033791475 H 0.0 **** 0.06
7685 H 67.3853767650525 195.9067809854414 162.05322216027312 H 0.0 **** 0.06
7686 C 22.410358496800015 16.399987521039122 67.55005786853815 C 0.0 **** -0.24
7687 H 21.64947313694435 15.656710667925623 67.78930488452443 H 0.0 **** 0.06
7688 H 23.20123473211116 16.36405372443413 68.30046089990788 H 0.0 **** 0.06
7689 H 21.95890081311208 17.39208725556368 67.5439575868159 H 0.0 **** 0.06
7690 H 22.830471913036774 16.185947620025814 66.56786605610938 H 0.0 **** 0.06
7691 C 82.6508165901907 203.83319030927538 34.11963675253428 C 0.0 **** -0.24
7692 H 82.75556290445421 202.79743199681278 33.79575085583946 H 0.0 **** 0.06
7693 H 83.6239325988228 204.21847062300154 34.42563261192704 H 0.0 **** 0.06
7694 H 81.95925836178291 203.88209293878145 34.960875060031285 H 0.0 **** 0.06
7695 H 82.26483669842072 204.43360526936647 33.29702900723747 H 0.0 **** 0.06
7696 C 180.32078438857826 176.27632220987655 39.693855757555525 C 0.0 **** -0.24
7697 H 181.40213260023557 176.38463844648146 39.61098373874478 H 0.0 **** 0.06
7698 H 180.02455835204594 175.29437018730243 39.32310176911909 H 0.0 **** 0.06
7699 H 179.8321458774794 177.05037908663002 39.10180128392625 H 0.0 **** 0.06
7700 H 180.02419674419065 176.37619612246593 40.73732213684485 H 0.0 **** 0.06
7701 C 64.28497418174501 174.56827034161688 196.9661725507498 C 0.0 **** -0.24
7702 H 63.53576598164459 174.15344376576698 197.63970584877123 H 0.0 **** 0.06
7703 H 65.25131281288917 174.1056884556112 197.16766644710492 H 0.0 **** 0.06
7704 H 64.35885428941671 175.64468178938148 197.122755661435 H 0.0 **** 0.06
7705 H 63.99540956362928 174.37072865490185 195.93368247126838 H 0.0 **** 0.06
7706 C 75.10791546852636 26.068516212735375 200.0585725284516 C 0.0 **** -0.24
7707 H 76.1492948707629 26.096380124586233 199.74051962262251 H 0.0 **** 0.06
7708 H 74.60034754070216 26.97167697088713 199.71930038725372 H 0.0 **** 0.06
7709 H 75.06153653615155 26.01065861825282 201.146217064257 H 0.0 **** 0.06
7710 H 74.61978633868165 25.19327882606484 199.62777485360965 H 0.0 **** 0.06
7711 C 147.48931095653285 127.39832744807835 128.05340289793105 C 0.0 **** -0.24
7712 H 147.7190488627174 127.94567278926785 127.13962792789378 H 0.0 **** 0.06
7713 H 147.23900452623764 128.1033321366757 128.84602021650142 H 0.0 **** 0.06
7714 H 148.35765683786076 126.80930789225043 128.35154474275248 H 0.0 **** 0.06
7715 H 146.64311470064456 126.7342908609835 127.87637903502117 H 0.0 **** 0.06
7716 C 76.24821049015331 110.40506390865482 88.69344789502473 C 0.0 **** -0.24
7717 H 76.8291317973668 109.70772659620718 89.29647793751751 H 0.0 **** 0.06
7718 H 76.72411265967902 111.38575613845933 88.71212998138641 H 0.0 **** 0.06
7719 H 75.23921308582872 110.4833212993446 89.10019742689379 H 0.0 **** 0.06
7720 H 76.19868560174974 110.04377591839165 87.66672086506993 H 0.0 **** 0.06
7721 C 5.791988544264285 133.61883399875484 51.44433394669039 C 0.0 **** -0.24
7722 H 6.603519378781186 133.99318177740844 52.067540625892946 H 0.0 **** 0.06
7723 H 6.187961517028953 132.90346663889483 50.72295880439293 H 0.0 **** 0.06
7724 H 5.328047490598863 134.4509150877082 50.91467188701171 H 0.0 **** 0.06
7725 H 5.048425790648196 133.12777249100787 52.07216446946421 H 0.0 **** 0.06
7726 C 77.05507487552757 200.13338176494636 109.26818059439778 C 0.0 **** -0.24
7727 H 76.03937063007385 200.02350599787133 109.64734589862131 H 0.0 **** 0.06
7728 H 77.13612957823517 199.64126648172572 108.29863078586071 H 0.0 **** 0.06
7729 H 77.75544540234017 199.67726670844604 109.9671464736068 H 0.0 **** 0.06
7730 H 77.28894196395044 201.1928386154447 109.1595227925824 H 0.0 **** 0.06
7731 C 109.59326083880147 203.92763076688644 211.59499081048665 C 0.0 **** -0.24
7732 H 109.73882783437831 202.90684428308052 211.24431815954296 H 0.0 **** 0.06
7733 H 109.89194438393072 203.99755519059653 212.64116663685581 H 0.0 **** 0.06
7734 H 108.54219552507486 204.19906243821885 211.49828669981014 H 0.0 **** 0.06
7735 H 110.20082873504997 204.60775915320437 210.99758661335298 H 0.0 **** 0.06
7736 C 165.8843130431722 67.6765851986367 76.17798513906934 C 0.0 **** -0.24
7737 H 166.03834750268817 67.69892933076335 75.09922137473603 H 0.0 **** 0.06
7738 H 166.44738148580143 66.84850410085426 76.60780574238157 H 0.0 **** 0.06
7739 H 164.82309698205148 67.54474295768551 76.39040510432591 H 0.0 **** 0.06
7740 H 166.22869659793957 68.61515674429836 76.61228521742572 H 0.0 **** 0.06
7741 C 56.87001010956675 135.52475003649033 154.97139803759455 C 0.0 **** -0.24
7742 H 56.10308163074447 135.5905863237574 155.74332512812992 H 0.0 **** 0.06
7743 H 57.60637044448245 136.31558666705354 155.12243464759422 H 0.0 **** 0.06
7744 H 56.4090657869354 135.64051786834233 153.99011913295573 H 0.0 **** 0.06
7745 H 57.362725608625354 134.55387286373866 155.0300418869955 H 0.0 **** 0.06
7746 C 192.84817855144584 117.78260748486396 71.38522917703881 C 0.0 **** -0.24
7747 H 193.1546244456915 118.75415908706766 70.99622075482131 H 0.0 **** 0.06
7748 H 192.09569766372178 117.3481782590679 70.7272733320375 H 0.0 **** 0.06
7749 H 192.43103490829128 117.90646750610567 72.3837580870316 H 0.0 **** 0.06
7750 H 193.71418817104407 117.12222782387737 71.43287561316174 H 0.0 **** 0.06
7751 C 39.091207394939545 206.85545006578133 138.6782025941542 C 0.0 **** -0.24
7752 H 38.91393362715547 205.78059397404365 138.63994646117237 H 0.0 **** 0.06
7753 H 39.92481474981213 207.06177909784148 139.35014623761276 H 0.0 **** 0.06
7754 H 38.195833347850794 207.35797971051693 139.0428495375046 H 0.0 **** 0.06
7755 H 39.33159374410258 207.21896830985094 137.67966215552428 H 0.0 **** 0.06
7756 C 85.585575691227 11.599338116758588 54.87801810905219 C 0.0 **** -0.24
7757 H 84.73769438571907 11.85451100078717 54.240806793422706 H 0.0 **** 0.06
7758 H 86.46692744681854 12.147239305236837 54.54531929656794 H 0.0 **** 0.06
7759 H 85.77689904237167 10.528876898276366 54.815694257807635 H 0.0 **** 0.06
7760 H 85.35746707214139 11.869292646579964 55.90960337596336 H 0.0 **** 0.06
7761 C 179.8499015565297 183.0421784199429 190.24010883707615 C 0.0 **** -0.24
7762 H 179.7071825625984 184.12153119259824 190.2865524357599 H 0.0 **** 0.06
7763 H 178.98448260815866 182.58088664676114 189.76387770851974 H 0.0 **** 0.06
7764 H 179.96333028739622 182.6462327015107 191.2493075529127 H 0.0 **** 0.06
7765 H 180.7452849557203 182.81953328853018 189.66018311597824 H 0.0 **** 0.06
7766 C 202.2367816294267 166.2471095350969 86.94394217561141 C 0.0 **** -0.24
7767 H 201.3577125930281 166.5117777202191 86.35563483119246 H 0.0 **** 0.06
7768 H 201.92128156354295 165.83288229819894 87.90102400326232 H 0.0 **** 0.06
7769 H 202.84113818961697 167.13930726684492 87.11466572814949 H 0.0 **** 0.06
7770 H 202.82619715284818 165.50756203031045 86.40249231134156 H 0.0 **** 0.06
7771 C 146.4551465808592 14.993758895967062 117.13301684674151 C 0.0 **** -0.24
7772 H 145.91789019433332 14.914867289674987 118.07858643220852 H 0.0 **** 0.06
7773 H 145.9308524059755 14.419214367869557 116.36911872051185 H 0.0 **** 0.06
7774 H 147.46421486105055 14.60204970189045 117.2549931692365 H 0.0 **** 0.06
7775 H 146.5051137404708 16.039829817170926 116.83071724672094 H 0.0 **** 0.06
7776 C 137.53182166244665 128.2068094554446 209.37924162439634 C 0.0 **** -0.24
7777 H 136.65474745976553 127.58904641749287 209.57050008270642 H 0.0 **** 0.06
7778 H 138.2334937044426 128.10803819160242 210.20782458876766 H 0.0 **** 0.06
7779 H 137.22720860586327 129.2497421880568 209.2823273944573 H 0.0 **** 0.06
7780 H 138.01060264470777 127.8815119645134 208.45579999394334 H 0.0 **** 0.06
7781 C 92.8930147281147 189.65250595749097 125.1241792069663 C 0.0 **** -0.24
7782 H 93.2992897978492 188.86511944787867 124.49102507732495 H 0.0 **** 0.06
7783 H 92.84317478112318 189.30044911445407 126.15486155683026 H 0.0 **** 0.06
7784 H 91.89132211200912 189.91405114709556 124.78121976979794 H 0.0 **** 0.06
7785 H 93.53642112744505 190.5311271206857 125.06983578908729 H 0.0 **** 0.06
7786 C 198.75128860255 101.95246762800834 68.05323177601178 C 0.0 **** -0.24
7787 H 198.93714294713436 102.51490724525534 67.13844602535093 H 0.0 **** 0.06
7788 H 199.4319316354625 102.29377632505053 68.83437939534076 H 0.0 **** 0.06
7789 H 198.91609469154315 100.89097722529472 67.8655106195096 H 0.0 **** 0.06
7790 H 197.72144564266392 102.10930617539343 68.37436615298226 H 0.0 **** 0.06
7791 C 6.701306357421117 182.90209224149731 158.18231706654524 C 0.0 **** -0.24
7792 H 5.829136857189411 182.25997383836938 158.29822404453597 H 0.0 **** 0.06
7793 H 7.415403108004739 182.69280474706477 158.97880354636908 H 0.0 **** 0.06
7794 H 6.393867027752947 183.94593420360718 158.23531832663338 H 0.0 **** 0.06
7795 H 7.1675271762661055 182.7095618703265 157.21570217306527 H 0.0 **** 0.06
7796 C 39.64001163380712 139.19714398197237 36.30767299643779 C 0.0 **** -0.24
7797 H 38.6377853933831 138.77094099846852 36.28040221916467 H 0.0 **** 0.06
7798 H 39.93760121930123 139.48964276607472 35.29958863754547 H 0.0 **** 0.06
7799 H 40.33966743867225 138.45573198639994 36.692271654330455 H 0.0 **** 0.06
7800 H 39.64511251619713 140.0724569880889 36.956442787666674 H 0.0 **** 0.06
7801 C 202.665019344728 123.75421277237814 214.75480681650328 C 0.0 **** -0.24
7802 H 202.681963164521 123.57686195151939 213.67944746699416 H 0.0 **** 0.06
7803 H 203.16819289642456 124.6965144094629 214.97534743923495 H 0.0 **** 0.06
7804 H 203.17702205226215 122.93910437220342 215.2655245936337 H 0.0 **** 0.06
7805 H 201.6306820845518 123.8059116313533 215.09698195061705 H 0.0 **** 0.06
7806 C 17.790182362033676 90.52422483029922 138.43525307497055 C 0.0 **** -0.24
7807 H 18.214520679049073 91.40413259143152 137.9525135506742 H 0.0 **** 0.06
7808 H 17.5183856400956 89.78979070948914 137.67696143998631 H 0.0 **** 0.06
7809 H 16.90122321999175 90.81208296550038 138.99765550788845 H 0.0 **** 0.06
7810 H 18.524949387707295 90.09130740378639 139.11355908595988 H 0.0 **** 0.06
7811 C 112.89681433421754 216.7364370929012 198.6093125079193 C 0.0 **** -0.24
7812 H 113.67567299120816 215.97445239358723 198.56427178308417 H 0.0 **** 0.06
7813 H 112.69130578025386 217.1046719182438 197.60362890786095 H 0.0 **** 0.06
7814 H 113.23290092386708 217.56255281971173 199.2363920532062 H 0.0 **** 0.06
7815 H 111.9904179561168 216.30504555593853 199.0312817529283 H 0.0 **** 0.06
7816 C 149.92769794942507 6.173154440678957 199.87431559852791 C 0.0 **** -0.24
7817 H 148.9483823963414 5.730564090419932 199.6894021496934 H 0.0 **** 0.06
7818 H 150.6370233552223 5.388573121381228 200.13514262106784 H 0.0 **** 0.06
7819 H 149.85383014204217 6.88554959999891 200.69610743598156 H 0.0 **** 0.06
7820 H 150.26801544896466 6.689045775097384 198.97613840160943 H 0.0 **** 0.06
7821 C 61.30494543773621 28.793153021461777 63.38915979291491 C 0.0 **** -0.24
7822 H 62.18535373089661 29.360306446284255 63.691469845517986 H 0.0 **** 0.06
7823 H 60.41025525846713 29.27237419308001 63.78659618789845 H 0.0 **** 0.06
7824 H 61.37710913583855 27.777509257156467 63.77828224443138 H 0.0 **** 0.06
7825 H 61.24910829263918 28.761955476425882 62.30155644430202 H 0.0 **** 0.06
7826 C 48.65580709011175 98.2292789270714 137.00331598907616 C 0.0 **** -0.24
7827 H 47.60062051585487 98.11662703182198 137.25001410714145 H 0.0 **** 0.06
7828 H 49.26393511710381 97.88440248133297 137.8404072027377 H 0.0 **** 0.06
7829 H 48.872269318686875 99.27880921130868 136.80459905827013 H 0.0 **** 0.06
7830 H 48.887283347935096 97.63730805939385 136.1171368924754 H 0.0 **** 0.06
7831 C 42.24376377453251 121.57114799706942 29.130617030174847 C 0.0 **** -0.24
7832 H 42.495688271938945 121.46321932251716 28.076199387452107 H 0.0 **** 0.06
7833 H 42.320169536380774 122.62009012109321 29.416646248515747 H 0.0 **** 0.06
7834 H 42.93373029794469 120.97871258698127 29.731885377762637 H 0.0 **** 0.06
7835 H 41.22440701149668 121.22198225636463 29.298465861160878 H 0.0 **** 0.06
7836 C 146.5366795983939 63.968167192901035 92.62526580811185 C 0.0 **** -0.24
7837 H 145.55420615384645 63.97732064814903 93.09838133298292 H 0.0 **** 0.06
7838 H 147.30684147536505 64.09853337512851 93.38522730147578 H 0.0 **** 0.06
7839 H 146.5989044723143 64.7800414376918 91.90113847124813 H 0.0 **** 0.06
7840 H 146.685160471073 63.015243861596105 92.1160294049716 H 0.0 **** 0.06
7841 C 56.84019161383074 25.93247667963071 23.917281117189304 C 0.0 **** -0.24
7842 H 57.89253617867783 25.71138016753322 24.093373060767362 H 0.0 **** 0.06
7843 H 56.73861751060646 26.96178900439756 23.573095151387406 H 0.0 **** 0.06
7844 H 56.28135452922214 25.801568813805233 24.843815183902137 H 0.0 **** 0.06
7845 H 56.44917103008447 25.254847805271325 23.159093720535708 H 0.0 **** 0.06
7846 C 184.72377151463604 8.497211274480605 68.75844800134156 C 0.0 **** -0.24
7847 H 185.70488153273635 8.969045686986817 68.70884408207525 H 0.0 **** 0.06
7848 H 184.01581918157598 9.18111259623737 69.22705510733167 H 0.0 **** 0.06
7849 H 184.78984696484525 7.582994895341358 69.34852730776444 H 0.0 **** 0.06
7850 H 184.38522765967244 8.256068830224422 67.75168562297219 H 0.0 **** 0.06
7851 C 146.81051331583194 36.19826324179931 96.40313457850857 C 0.0 **** -0.24
7852 H 147.0931846470765 35.26864958758536 95.9095725236159 H 0.0 **** 0.06
7853 H 146.75441478598543 36.99852973939342 95.66529948699866 H 0.0 **** 0.06
7854 H 147.5549939067841 36.45021428841264 97.15788648757609 H 0.0 **** 0.06
7855 H 145.83761226175267 36.074419240927 96.87999971556377 H 0.0 **** 0.06
7856 C 214.97322146800053 159.76716240616224 58.60188336345013 C 0.0 **** -0.24
7857 H 214.03801066963487 160.22160750316075 58.27760181523426 H 0.0 **** 0.06
7858 H 214.90046349790885 158.68273757735832 58.51115724347913 H 0.0 **** 0.06
7859 H 215.16563705288587 160.0326971886631 59.64103765723496 H 0.0 **** 0.06
7860 H 215.7892471703965 160.12975707450912 57.977142385991286 H 0.0 **** 0.06
7861 C 82.60390557685041 103.35239380370079 12.137147345801537 C 0.0 **** -0.24
7862 H 82.61439281605483 104.44202919902962 12.17812144162275 H 0.0 **** 0.06
7863 H 81.77498375078382 103.019506036556 11.512451837123137 H 0.0 **** 0.06
7864 H 82.48446749176036 102.95304955310748 13.144552357971406 H 0.0 **** 0.06
7865 H 83.54388510344965 102.99713695146436 11.714440353824614 H 0.0 **** 0.06
7866 C 110.06179740294728 124.40916310437598 48.97821223155901 C 0.0 **** -0.24
7867 H 110.89572029950831 124.47912340124049 48.279857526028835 H 0.0 **** 0.06
7868 H 110.3565175908024 124.83381534399234 49.93852137169358 H 0.0 **** 0.06
7869 H 109.78697883641898 123.3630198436432 49.112186731284666 H 0.0 **** 0.06
7870 H 109.20913364490325 124.96149414068157 48.58217297452319 H 0.0 **** 0.06
7871 C 11.11411546496089 164.66292312935286 126.99589314937789 C 0.0 **** -0.24
7872 H 10.322606138212223 164.54219057779022 127.73603893669754 H 0.0 **** 0.06
7873 H 11.726303295678576 163.761825168957 126.96864150646668 H 0.0 **** 0.06
7874 H 11.736231867716896 165.51724389720948 127.26630279434586 H 0.0 **** 0.06
7875 H 10.670841004862837 164.83269645424247 126.01496557906061 H 0.0 **** 0.06
7876 C 148.10545484611532 109.13063714047708 211.27314582589187 C 0.0 **** -0.24
7877 H 148.3042747437018 108.14839122220941 211.7013662531998 H 0.0 **** 0.06
7878 H 148.7515485674412 109.87069695207559 211.7461188985887 H 0.0 **** 0.06
7879 H 147.0619702768625 109.39639043723382 211.44397113200299 H 0.0 **** 0.06
7880 H 148.30277523569623 109.1065683523744 210.2015565906268 H 0.0 **** 0.06
7881 C 129.30578155452383 46.629514478699434 128.34423529849977 C 0.0 **** -0.24
7882 H 129.44604288353918 46.16576908635477 127.36773434588753 H 0.0 **** 0.06
7883 H 128.54584718226397 47.408001095578356 128.27050953174398 H 0.0 **** 0.06
7884 H 130.2468389943001 47.06911071335344 128.6749015704341 H 0.0 **** 0.06
7885 H 128.98568798113342 45.87444016762032 129.06184871573288 H 0.0 **** 0.06
7886 C 48.20128266346035 185.97655998385508 136.50090007074192 C 0.0 **** -0.24
7887 H 48.48165310404431 186.87649336216754 137.0496773419875 H 0.0 **** 0.06
7888 H 47.243069006859855 185.60969391207098 136.87090282321935 H 0.0 **** 0.06
7889 H 48.96404320626439 185.2121495209186 136.64552758270787 H 0.0 **** 0.06
7890 H 48.11661620596871 186.21041758509676 135.43964074784776 H 0.0 **** 0.06
7891 C 16.52578541025261 158.4887119751122 73.58601963282399 C 0.0 **** -0.24
7892 H 16.963480663068466 159.1501319652159 74.33437357027839 H 0.0 **** 0.06
7893 H 15.62502758782496 158.02801318436013 73.99030305866626 H 0.0 **** 0.06
7894 H 17.244817996187194 157.71362207637247 73.32217135485052 H 0.0 **** 0.06
7895 H 16.27180202472522 159.06537265467176 72.69633595571361 H 0.0 **** 0.06
7896 C 121.02993621093832 60.19920311368175 108.30142775424683 C 0.0 **** -0.24
7897 H 121.46960139723608 60.292603645729 109.29410846327356 H 0.0 **** 0.06
7898 H 121.34493126547729 61.04098529462202 107.6840510241339 H 0.0 **** 0.06
7899 H 119.94342116576114 60.19488694393199 108.38374148637634 H 0.0 **** 0.06
7900 H 121.3633242946732 59.2681367502916 107.84219473798497 H 0.0 **** 0.06
7901 C 97.43706120105504 18.40428073561 166.49491889168166 C 0.0 **** -0.24
7902 H 98.05713124205123 17.508866917721434 166.4531053300497 H 0.0 **** 0.06
7903 H 97.89133609292433 19.189069472047436 165.89057620078242 H 0.0 **** 0.06
7904 H 97.35433026892666 18.741981864853557 167.5277057366897 H 0.0 **** 0.06
7905 H 96.44403543634381 18.175781807372687 166.10605615085365 H 0.0 **** 0.06
7906 C 127.90971844287016 104.2401731311284 18.138643355256065 C 0.0 **** -0.24
7907 H 128.90569733744235 104.43856816932423 17.7434224329684 H 0.0 **** 0.06
7908 H 127.27002044514434 105.10514066978759 17.959334153882708 H 0.0 **** 0.06
7909 H 127.97434085477049 104.0518990676607 19.209792709273202 H 0.0 **** 0.06
7910 H 127.48773389096964 103.36706793785321 17.641076783214316 H 0.0 **** 0.06
7911 C 63.363388495474396 48.13547353433688 4.30084202044992 C 0.0 **** -0.24
7912 H 63.58347649779165 48.501286397559284 3.298402326134976 H 0.0 **** 0.06
7913 H 62.34004551830441 47.76276381146566 4.334984907981237 H 0.0 **** 0.06
7914 H 63.47881962483922 48.948665040866345 5.017837400248283 H 0.0 **** 0.06
7915 H 64.05310441059737 47.329252422115445 4.553332880028478 H 0.0 **** 0.06
7916 C 134.04182598283586 115.70855319280084 119.34948174489726 C 0.0 **** -0.24
7917 H 133.66301913639455 116.34737506539683 120.14716408841447 H 0.0 **** 0.06
7918 H 133.42225606990723 115.83042257699888 118.46081863742101 H 0.0 **** 0.06
7919 H 134.01338664554538 114.66792101152974 119.67298755437237 H 0.0 **** 0.06
7920 H 135.0696723119708 115.98906802369443 119.11773726736116 H 0.0 **** 0.06
7921 C 95.2479188625951 66.4124326654237 158.0710117638841 C 0.0 **** -0.24
7922 H 96.32607642647406 66.5714273265746 158.05926027855418 H 0.0 **** 0.06
7923 H 94.76270934030276 67.25222040635634 158.5684938311931 H 0.0 **** 0.06
7924 H 95.02196427417584 65.4908789363559 158.60821600686683 H 0.0 **** 0.06
7925 H 94.88082508156054 66.33462926662935 157.04726475572403 H 0.0 **** 0.06
7926 C 167.37861210797806 51.50871045710227 154.51778028372888 C 0.0 **** -0.24
7927 H 166.52609386533553 52.13904100839301 154.77016921707497 H 0.0 **** 0.06
7928 H 167.776373587297 51.806136272255 153.54753813572836 H 0.0 **** 0.06
7929 H 167.06097678419113 50.46701996106452 154.47799536708555 H 0.0 **** 0.06
7930 H 168.15216274882388 51.62336720693622 155.27808969295535 H 0.0 **** 0.06
7931 C 24.82381634309104 179.92599445882945 186.73316307557704 C 0.0 **** -0.24
7932 H 24.186443724640384 179.75916971842815 185.86406537682342 H 0.0 **** 0.06
7933 H 24.291346381067854 180.54094134617623 187.4597201805624 H 0.0 **** 0.06
7934 H 25.735137603495673 180.43595805142516 186.42313919394388 H 0.0 **** 0.06
7935 H 25.079251583337054 178.9678633653482 187.18503891186072 H 0.0 **** 0.06
7936 C 146.33572155746964 3.8775191009807486 107.28636946197891 C 0.0 **** -0.24
7937 H 147.26529843407627 4.122801143762899 107.79933795510895 H 0.0 **** 0.06
7938 H 145.51715264790965 4.446046015823356 107.72571920149865 H 0.0 **** 0.06
7939 H 146.1351010575409 2.811181065609617 107.39014202987927 H 0.0 **** 0.06
7940 H 146.42775740218457 4.128601419230392 106.22926150890335 H 0.0 **** 0.06
7941 C 192.38192736034435 17.21964267457915 55.17727634050959 C 0.0 **** -0.24
7942 H 193.27236277617322 17.196881382523244 54.5486541660502 H 0.0 **** 0.06
7943 H 192.54671768441864 17.89640740486948 56.01554108471515 H 0.0 **** 0.06
7944 H 192.17858416550365 16.217592789013892 55.554488088055734 H 0.0 **** 0.06
7945 H 191.53173632070525 17.56733599785298 54.59030301208469 H 0.0 **** 0.06
7946 C 134.35137614137903 68.81110052928594 30.672715128851564 C 0.0 **** -0.24
7947 H 134.0093065695458 69.02268660899789 29.659769488111067 H 0.0 **** 0.06
7948 H 134.64471318593564 69.74210864973502 31.158578698067657 H 0.0 **** 0.06
7949 H 135.20733125240173 68.13665063059143 30.63316344447938 H 0.0 **** 0.06
7950 H 133.5455669948269 68.34303818041427 31.237618115030557 H 0.0 **** 0.06
7951 C 200.50086249916404 83.69041183847429 116.22540676779415 C 0.0 **** -0.24
7952 H 201.3599032306323 83.37281403615185 116.81674068442193 H 0.0 **** 0.06
7953 H 199.58285366950327 83.40757272000707 116.73988800844144 H 0.0 **** 0.06
7954 H 200.53477553212693 83.20817548276074 115.2488238842398 H 0.0 **** 0.06
7955 H 200.52799751399846 84.77250710930247 116.09675742102029 H 0.0 **** 0.06
7956 C 86.62704116391508 11.742797714374603 61.48361325999204 C 0.0 **** -0.24
7957 H 86.37104923293911 11.329431885799437 62.459412915625336 H 0.0 **** 0.06
7958 H 87.44896693817397 11.172390695862788 61.050605180482734 H 0.0 **** 0.06
7959 H 86.92890487663128 12.7844658062144 61.59926812121461 H 0.0 **** 0.06
7960 H 85.75907265557252 11.687810673444034 60.826396983331705 H 0.0 **** 0.06
7961 C 37.80954277484959 0.989750381449106 208.66456983236762 C 0.0 **** -0.24
7962 H 36.843170502764465 0.9055795258145949 209.16078049319603 H 0.0 **** 0.06
7963 H 37.884416735269426 0.23079160326751236 207.88501828150285 H 0.0 **** 0.06
7964 H 38.606068401524155 0.8420959812388276 209.39354324289909 H 0.0 **** 0.06
7965 H 37.904000828238935 1.9789595356424456 208.21781705492802 H 0.0 **** 0.06
7966 C 148.3630019067724 135.16029647255783 58.78524539046795 C 0.0 **** -0.24
7967 H 147.35906419442904 135.31462245321148 58.390019259186886 H 0.0 **** 0.06
7968 H 148.79428775853205 136.12211875698898 59.06544633561364 H 0.0 **** 0.06
7969 H 148.98440124246974 134.69057138414797 58.024065181259516 H 0.0 **** 0.06
7970 H 148.31272277427814 134.51513735113014 59.66288476338923 H 0.0 **** 0.06
7971 C 167.7845940509327 46.04752295467364 194.5782461267272 C 0.0 **** -0.24
7972 H 167.29657948472487 46.321377773324 193.64212461674694 H 0.0 **** 0.06
7973 H 167.05215288370806 45.60428415892406 195.25286857091592 H 0.0 **** 0.06
7974 H 168.21018994716798 46.939910793588126 195.0391856521453 H 0.0 **** 0.06
7975 H 168.57737088630893 45.328365416213614 194.3774391913459 H 0.0 **** 0.06
7976 C 157.98299560842395 140.11482367335384 46.45871306669417 C 0.0 **** -0.24
7977 H 158.93545879643762 139.69838970486825 46.13073172078819 H 0.0 **** 0.06
7978 H 157.9276166084731 141.16506057648297 46.172245353389755 H 0.0 **** 0.06
7979 H 157.90450303346506 140.0286107504868 47.543364355119095 H 0.0 **** 0.06
7980 H 157.16592334390577 139.56607769168158 45.99059780874576 H 0.0 **** 0.06
7981 C 98.85419938721164 47.1825869106878 17.49414231100576 C 0.0 **** -0.24
7982 H 99.46950226082613 48.04086385176845 17.225513960205035 H 0.0 **** 0.06
7983 H 99.47689858868377 46.42369834367503 17.968424919382187 H 0.0 **** 0.06
7984 H 98.39634977032277 46.76854383272047 16.596098222417197 H 0.0 **** 0.06
7985 H 98.0736171498762 47.497018329381035 18.18786085098111 H 0.0 **** 0.06
7986 C 144.22132692246413 37.18724799953333 196.00500078120396 C 0.0 **** -0.24
7987 H 143.98144946700103 36.13373424302205 195.86584013390893 H 0.0 **** 0.06
7988 H 145.2365684321478 37.37875753662087 195.6543286420495 H 0.0 **** 0.06
7989 H 144.14892108523145 37.439767727908986 197.06244217566993 H 0.0 **** 0.06
7990 H 143.52018218757468 37.79752672139426 195.43594975099265 H 0.0 **** 0.06
7991 C 157.8331428030521 5.118720489753102 146.30565028992015 C 0.0 **** -0.24
7992 H 158.91754973293223 5.065998196971222 146.20374286186473 H 0.0 **** 0.06
7993 H 157.47180874205873 6.048170264005108 145.86487601588004 H 0.0 **** 0.06
7994 H 157.5661095457233 5.089023598527369 147.3616741809687 H 0.0 **** 0.06
7995 H 157.3793315381883 4.271832659800502 145.79218904108978 H 0.0 **** 0.06
7996 C 132.53163651695291 89.69333203657328 60.75004653640326 C 0.0 **** -0.24
7997 H 133.43007625878715 90.08630212324283 61.226581622363256 H 0.0 **** 0.06
7998 H 132.31395993514008 88.70190284051728 61.14905307224345 H 0.0 **** 0.06
7999 H 132.6908947969058 89.62532732760138 59.67414492047499 H 0.0 **** 0.06
8000 H 131.6931347181402 90.35900628884662 60.95357946237311 H 0.0 **** 0.06
8001 C 74.87584389519746 170.01474255296995 192.09053830289764 C 0.0 **** -0.24
8002 H 74.83203582520848 168.97806467656306 191.75640513634573 H 0.0 **** 0.06
8003 H 73.86249691615369 170.40146516328915 192.20531497637796 H 0.0 **** 0.06
8004 H 75.41132447786445 170.61169794329498 191.35309547520242 H 0.0 **** 0.06
8005 H 75.39434874416845 170.0663836166582 193.04766528004484 H 0.0 **** 0.06
8006 C 87.96943197413394 197.44978206908058 50.87229689086091 C 0.0 **** -0.24
8007 H 86.91244148278203 197.45160835116405 51.14031539559386 H 0.0 **** 0.06
8008 H 88.57303808177734 197.36060462867567 51.775287023979104 H 0.0 **** 0.06
8009 H 88.21437886795933 198.3802334426267 50.36055829638852 H 0.0 **** 0.06
8010 H 88.17415945138389 196.60701017304285 50.21266872730986 H 0.0 **** 0.06
8011 C 137.20753316104106 120.63033546407028 148.50501358164507 C 0.0 **** -0.24
8012 H 137.22145119415205 120.24339985908809 149.52337562114172 H 0.0 **** 0.06
8013 H 136.73713771060676 119.90172917852446 147.84572599989917 H 0.0 **** 0.06
8014 H 138.22913211853142 120.815356832196 148.1735489615849 H 0.0 **** 0.06
8015 H 136.64277054880847 121.562974146455 148.4780239485744 H 0.0 **** 0.06
8016 C 51.20624112409382 206.10449895109915 208.6756426918623 C 0.0 **** -0.24
8017 H 51.637572736594905 206.23825352563756 207.68355051273184 H 0.0 **** 0.06
8018 H 50.5510406032887 205.2335694324334 208.67215229151304 H 0.0 **** 0.06
8019 H 50.63231138844293 206.99091514891876 208.94459642140902 H 0.0 **** 0.06
8020 H 52.00561698451975 205.9557496394057 209.40175151091123 H 0.0 **** 0.06
8021 C 52.91583468596809 57.72478305368561 107.86014934728975 C 0.0 **** -0.24
8022 H 52.16477411184832 58.33952689329587 107.3630817675171 H 0.0 **** 0.06
8023 H 53.43113204010558 58.319107656941 108.61522090199647 H 0.0 **** 0.06
8024 H 53.6374441521628 57.367466733081045 107.12518950501114 H 0.0 **** 0.06
8025 H 52.43094235519871 56.87300616559291 108.33680613449424 H 0.0 **** 0.06
8026 C 177.36744479346433 108.22902504697781 140.51177317210107 C 0.0 **** -0.24
8027 H 177.6027014512025 108.80558209188614 141.40632468746793 H 0.0 **** 0.06
8028 H 176.3987167133638 108.54235197725457 140.1214101445094 H 0.0 **** 0.06
8029 H 177.3330435353336 107.1683080647425 140.76133314858112 H 0.0 **** 0.06
8030 H 178.13619225353216 108.39938213811972 139.7579337040409 H 0.0 **** 0.06
8031 C 140.78995837877915 132.36581585582888 101.40689761867255 C 0.0 **** -0.24
8032 H 139.89886062739333 132.43662587975558 102.03143976451157 H 0.0 **** 0.06
8033 H 140.87289398801204 131.35500378069975 101.00708419170154 H 0.0 **** 0.06
8034 H 141.67115991111643 132.59529099235345 102.00566564631838 H 0.0 **** 0.06
8035 H 140.7142659400036 133.07727469816768 100.58444633691032 H 0.0 **** 0.06
8036 C 12.503256624907578 18.900367800156374 172.16131388305615 C 0.0 **** -0.24
8037 H 13.378451476765179 18.32612740804197 172.46510012096059 H 0.0 **** 0.06
8038 H 11.785449806708243 18.238339735778595 171.67582405879415 H 0.0 **** 0.06
8039 H 12.806291206682971 19.682335716075755 171.4649444698759 H 0.0 **** 0.06
8040 H 12.043109568805832 19.353989741927762 173.03870600986727 H 0.0 **** 0.06
8041 C 21.859615798083723 39.19135800966677 29.049561336943555 C 0.0 **** -0.24
8042 H 21.589347080469622 38.43647440510743 28.31152089634483 H 0.0 **** 0.06
8043 H 22.907758668994234 39.07342158271291 29.32232247388461 H 0.0 **** 0.06
8044 H 21.23647238831728 39.07295049277651 29.936172352345864 H 0.0 **** 0.06
8045 H 21.703733148962442 40.184277016472194 28.626883451482172 H 0.0 **** 0.06
8046 C 168.45215035765298 10.036703825905079 6.355628365061236 C 0.0 **** -0.24
8047 H 167.6628919912028 10.78646694076157 6.418625628302905 H 0.0 **** 0.06
8048 H 169.04167269329724 10.053304328343813 7.272117301176436 H 0.0 **** 0.06
8049 H 169.09641118905103 10.25930576527189 5.504017230650582 H 0.0 **** 0.06
8050 H 168.00643904489021 9.050567180436943 6.226492492134639 H 0.0 **** 0.06
8051 C 93.3533530969504 56.454443721130176 2.266936099440443 C 0.0 **** -0.24
8052 H 93.31022896993522 55.895040635634416 1.3322652272452729 H 0.0 **** 0.06
8053 H 92.98399130494909 55.83035737717586 3.080359254705172 H 0.0 **** 0.06
8054 H 92.73604528599981 57.34858224680585 2.18396327963751 H 0.0 **** 0.06
8055 H 94.38489199655999 56.74326660413965 2.469862162637469 H 0.0 **** 0.06
8056 C 107.6296430688375 6.008384228326605 37.96995277558035 C 0.0 **** -0.24
8057 H 108.57336519514458 5.653108329602247 38.38365039299862 H 0.0 **** 0.06
8058 H 106.9346646183305 6.220961321133615 38.78270186385912 H 0.0 **** 0.06
8059 H 107.20697447711238 5.242381747589576 37.32072201729109 H 0.0 **** 0.06
8060 H 107.80457611774965 6.916632606005521 37.39407046687447 H 0.0 **** 0.06
8061 C 196.90902531353396 106.63991666607102 122.95275231447881 C 0.0 **** -0.24
8062 H 197.76740434211865 107.29985578636676 122.82920504052264 H 0.0 **** 0.06
8063 H 196.45267373005953 106.81666990234562 123.9269903097687 H 0.0 **** 0.06
8064 H 197.23579026701017 105.60236989353727 122.88654439061823 H 0.0 **** 0.06
8065 H 196.1798802717652 106.8414055777743 122.16758171260689 H 0.0 **** 0.06
8066 C 201.31783997196897 65.96689770982299 130.33979913324748 C 0.0 **** -0.24
8067 H 200.9690494382486 64.97374783457226 130.05564312601393 H 0.0 **** 0.06
8068 H 202.179866231845 65.87244589959667 131.00132974133237 H 0.0 **** 0.06
8069 H 200.51894246009516 66.49786248455845 130.85654693894475 H 0.0 **** 0.06
8070 H 201.60415840970938 66.52065670991226 129.44621206858818 H 0.0 **** 0.06
8071 C 189.762175777852 153.75258416140105 137.9188450292976 C 0.0 **** -0.24
8072 H 189.4735159024829 152.74103408283202 137.6364144689192 H 0.0 **** 0.06
8073 H 190.50282131172213 154.1299194243672 137.21306641996637 H 0.0 **** 0.06
8074 H 190.18752832438236 153.7420084897493 138.92175104776737 H 0.0 **** 0.06
8075 H 188.8840297059453 154.39757955277827 137.9035955664217 H 0.0 **** 0.06
8076 C 135.30991525685783 215.32018672725854 108.88253927852293 C 0.0 **** -0.24
8077 H 135.21450844909168 216.37072985531927 109.15781699442664 H 0.0 **** 0.06
8078 H 134.68263766846212 215.11423069072634 108.01555827213991 H 0.0 **** 0.06
8079 H 134.99093518836378 214.69648790676686 109.71838953770458 H 0.0 **** 0.06
8080 H 136.3498129705951 215.10092266269447 108.6406815741048 H 0.0 **** 0.06
8081 C 178.94701970997951 18.510812921413986 154.89506147962658 C 0.0 **** -0.24
8082 H 178.9720246310934 19.39875787184397 155.52707861753902 H 0.0 **** 0.06
8083 H 178.0836787636915 17.901066203004802 155.15883688254587 H 0.0 **** 0.06
8084 H 179.85968941521966 17.933313599007505 155.04388918944068 H 0.0 **** 0.06
8085 H 178.87444177254196 18.81140847434648 153.84932685192115 H 0.0 **** 0.06
8086 C 130.23146012906278 184.66532311666032 80.93751095355525 C 0.0 **** -0.24
8087 H 130.47809906325932 185.47567582160326 80.25225782589989 H 0.0 **** 0.06
8088 H 129.1875260726634 184.7506051762384 81.24126219021689 H 0.0 **** 0.06
8089 H 130.87158886444587 184.7264883501768 81.81713595234298 H 0.0 **** 0.06
8090 H 130.3883887256905 183.70812772778658 80.44027505422609 H 0.0 **** 0.06
8091 C 116.30761527838439 196.8235198696169 21.391723793447056 C 0.0 **** -0.24
8092 H 115.60645897587483 196.36115028733332 22.085904844595603 H 0.0 **** 0.06
8093 H 117.32804274528377 196.60272212426645 21.704949395279357 H 0.0 **** 0.06
8094 H 116.15335387837695 197.90241292163344 21.38521724709227 H 0.0 **** 0.06
8095 H 116.14069409616957 196.42670280534333 20.390429296333878 H 0.0 **** 0.06
8096 C 33.44179872090524 188.9758417851212 26.71368211278329 C 0.0 **** -0.24
8097 H 34.48512167765314 189.02580553166214 26.399591369176733 H 0.0 **** 0.06
8098 H 32.90980402098549 189.8528360840129 26.34487894510673 H 0.0 **** 0.06
8099 H 33.39173137115735 188.95070288097423 27.801960763797354 H 0.0 **** 0.06
8100 H 32.98330839530479 188.07465326724034 26.306909438661364 H 0.0 **** 0.06
8101 C 126.98257906075752 189.94497124119755 97.51955742207906 C 0.0 **** -0.24
8102 H 126.81297087814606 190.85069359529763 98.1018565028927 H 0.0 **** 0.06
8103 H 127.356239145484 190.2137719663907 96.53172877259692 H 0.0 **** 0.06
8104 H 126.04488007061458 189.39815182736464 97.41866502676191 H 0.0 **** 0.06
8105 H 127.71507421433101 189.31878244380232 98.02850493377707 H 0.0 **** 0.06
8106 C 168.39275447479562 36.040410841610424 114.33081858477526 C 0.0 **** -0.24
8107 H 167.67287833486466 36.85607622817673 114.39976392596814 H 0.0 **** 0.06
8108 H 169.37002465211165 36.44045592685467 114.05893426670436 H 0.0 **** 0.06
8109 H 168.06528523755534 35.3307069974868 113.57131645631303 H 0.0 **** 0.06
8110 H 168.46194695895525 35.53506178141623 115.29414763825089 H 0.0 **** 0.06
8111 C 55.94606053463707 106.97142986851726 152.58606410055103 C 0.0 **** -0.24
8112 H 55.185663361178825 106.76538256851366 153.3390387199193 H 0.0 **** 0.06
8113 H 55.97504724793828 108.04244640234641 152.38207018991977 H 0.0 **** 0.06
8114 H 55.70458651668318 106.43343848561615 151.66908824727756 H 0.0 **** 0.06
8115 H 56.91916382404284 106.64453828091148 152.9530872897352 H 0.0 **** 0.06
8116 C 165.3523378211774 92.51597911723975 167.23223263894175 C 0.0 **** -0.24
8117 H 165.24311670711745 91.48025193734058 166.9068465068308 H 0.0 **** 0.06
8118 H 166.37337901831452 92.68157740975484 167.57621406109155 H 0.0 **** 0.06
8119 H 164.6560795947317 92.71592790866895 168.04663247800906 H 0.0 **** 0.06
8120 H 165.13651648817955 93.1827495063517 166.39771869169496 H 0.0 **** 0.06
8121 C 202.61338393707405 99.34190049202444 131.95881272881792 C 0.0 **** -0.24
8122 H 203.44742183038738 98.85593837897791 132.46519969114854 H 0.0 **** 0.06
8123 H 202.56117715745438 100.3863914135734 132.26448949774147 H 0.0 **** 0.06
8124 H 201.68391866968142 98.83833042053566 132.2254972710387 H 0.0 **** 0.06
8125 H 202.75995191547202 99.28499141740228 130.87982045086738 H 0.0 **** 0.06
8126 C 5.814186270564022 14.337806054863222 96.01492391418715 C 0.0 **** -0.24
8127 H 4.758696110718688 14.102582157541619 95.87361786858345 H 0.0 **** 0.06
8128 H 6.4229675197340725 13.634195811337122 95.44726279216873 H 0.0 **** 0.06
8129 H 6.063754048742794 14.26381722801257 97.07361401162048 H 0.0 **** 0.06
8130 H 6.008319554880302 15.352016798062152 95.66536565046748 H 0.0 **** 0.06
8131 C 178.27845383355992 55.55572724477943 105.10030913981593 C 0.0 **** -0.24
8132 H 177.7329736351607 55.65815513332632 106.03808576922209 H 0.0 **** 0.06
8133 H 177.66494210064758 55.01242092294743 104.38037597551529 H 0.0 **** 0.06
8134 H 179.20395156866056 55.00674328546344 105.27629693750127 H 0.0 **** 0.06
8135 H 178.51218475936668 56.54430598334301 104.70593361118175 H 0.0 **** 0.06
8136 C 9.71293205848906 9.802931887989274 68.35236372788356 C 0.0 **** -0.24
8137 H 9.430081886953502 10.774305423183847 67.94876572932007 H 0.0 **** 0.06
8138 H 9.057560569819998 9.55086198022589 69.18692836565562 H 0.0 **** 0.06
8139 H 10.74597277306151 9.840397415688074 68.69902547068833 H 0.0 **** 0.06
8140 H 9.618476123151481 9.04449369798023 67.57444808642519 H 0.0 **** 0.06
8141 C 2.7855580587528905 152.1161830349347 145.08899785499608 C 0.0 **** -0.24
8142 H 2.9947668243805268 153.1021494224587 145.50288080508477 H 0.0 **** 0.06
8143 H 3.1616059662981613 152.06366596085422 144.06648130644038 H 0.0 **** 0.06
8144 H 1.7090247768291533 151.94315050176021 145.08999030714182 H 0.0 **** 0.06
8145 H 3.2759987205142593 151.35614489053108 145.69624170487748 H 0.0 **** 0.06
8146 C 150.51510521054394 109.97792262488998 109.56349566989981 C 0.0 **** -0.24
8147 H 151.06755121335277 109.12176185798013 109.17670595059668 H 0.0 **** 0.06
8148 H 150.19647167389388 110.6099254846073 108.73410661534773 H 0.0 **** 0.06
8149 H 151.15600791645676 110.55209885392328 110.23273966124383 H 0.0 **** 0.06
8150 H 149.63946980679015 109.6280257030841 110.11149744331094 H 0.0 **** 0.06
8151 C 110.77790956159232 165.54049417690229 10.762846223896673 C 0.0 **** -0.24
8152 H 109.89157368758593 165.20799285552212 11.303165320572418 H 0.0 **** 0.06
8153 H 111.62924201222044 165.56849024461727 11.443019302442849 H 0.0 **** 0.06
8154 H 110.60444993485835 166.53720709851137 10.356993727536292 H 0.0 **** 0.06
8155 H 110.98604260486802 164.84758333759046 9.947576733583844 H 0.0 **** 0.06
8156 C 210.72400820624975 116.40694095317794 201.93440683399126 C 0.0 **** -0.24
8157 H 211.11729598965582 116.19928561421348 200.93889032034681 H 0.0 **** 0.06
8158 H 210.08877305974966 115.58088948828224 202.25385858277681 H 0.0 **** 0.06
8159 H 210.14130142781795 117.32682427962051 201.90925562492703 H 0.0 **** 0.06
8160 H 211.55219911243574 116.52056067963484 202.63441864074636 H 0.0 **** 0.06
8161 C 114.48880404334874 64.86338498680846 144.59827555138878 C 0.0 **** -0.24
8162 H 113.64267469224036 64.27115639562788 144.25034517437825 H 0.0 **** 0.06
8163 H 115.04889832092643 64.29541436933584 145.341214254879 H 0.0 **** 0.06
8164 H 114.12420434327827 65.78819381429781 145.04661230734428 H 0.0 **** 0.06
8165 H 115.13856142902632 65.09998764301884 143.75580261027818 H 0.0 **** 0.06
8166 C 5.457138827921668 36.1074255270661 59.93054989785719 C 0.0 **** -0.24
8167 H 5.013938536831489 36.65803285546413 60.76118894894432 H 0.0 **** 0.06
8168 H 4.879059362050242 35.20140308377705 59.747682167853384 H 0.0 **** 0.06
8169 H 6.483866704574069 35.840168591836346 60.179583482461226 H 0.0 **** 0.06
8170 H 5.450443441720296 36.73046180114157 59.036796525161634 H 0.0 **** 0.06
8171 C 75.56794575559212 84.13592248395406 152.17336224609886 C 0.0 **** -0.24
8172 H 75.11115380025655 83.62473958032251 151.32622454957334 H 0.0 **** 0.06
8173 H 75.42080232338412 85.21183040760945 152.07038595675414 H 0.0 **** 0.06
8174 H 76.63533828756721 83.91581123241696 152.19816872073477 H 0.0 **** 0.06
8175 H 75.10417527052618 83.79251190225222 153.09799581883038 H 0.0 **** 0.06
8176 C 216.12352050524345 55.8755090635762 34.76017645438276 C 0.0 **** -0.24
8177 H 215.2336208515677 56.34700253281284 35.1772168029384 H 0.0 **** 0.06
8178 H 216.10388530703165 55.96321351816147 33.673535512194036 H 0.0 **** 0.06
8179 H 216.1408757076014 54.82240819921532 35.04050394102347 H 0.0 **** 0.06
8180 H 217.01220841554272 56.37066849682395 35.14897079159252 H 0.0 **** 0.06
8181 C 180.1289781900702 187.3078145134366 1.3694202914293783 C 0.0 **** -0.24
8182 H 180.89457336846812 187.89771765193402 0.86431390047332 H 0.0 **** 0.06
8183 H 180.11241092725436 186.30099311085547 0.951654409179298 H 0.0 **** 0.06
8184 H 179.15659697753728 187.7771074306939 1.2265705830507727 H 0.0 **** 0.06
8185 H 180.35554048871512 187.2557224210454 2.4343531887541587 H 0.0 **** 0.06
8186 C 193.22599216655757 63.175899160901395 164.6391980704144 C 0.0 **** -0.24
8187 H 193.50093123721715 62.453639767849154 165.40854456640204 H 0.0 **** 0.06
8188 H 192.58699441366232 63.943651221863604 165.07368484220848 H 0.0 **** 0.06
8189 H 192.6896746725319 62.666835732397715 163.83865381779177 H 0.0 **** 0.06
8190 H 194.12810982318354 63.63775208761325 164.23603709660432 H 0.0 **** 0.06
8191 C 166.0391417600847 23.672098495202818 70.32568259725407 C 0.0 **** -0.24
8192 H 165.5565618656721 24.27212341304225 71.09676486887635 H 0.0 **** 0.06
8193 H 165.29910615293772 23.373103474395535 69.58219053700957 H 0.0 **** 0.06
8194 H 166.47833104068388 22.78364877299316 70.77831156963141 H 0.0 **** 0.06
8195 H 166.82057586617873 24.259856735320525 69.8445057922627 H 0.0 **** 0.06
8196 C 36.873359285922945 136.9195000607411 171.75549614525752 C 0.0 **** -0.24
8197 H 37.72471338185272 137.1085653653588 171.101661571615 H 0.0 **** 0.06
8198 H 36.97285353871868 137.51588993274925 172.66279166608805 H 0.0 **** 0.06
8199 H 36.843925336171324 135.86158842273647 172.01709842319337 H 0.0 **** 0.06
8200 H 35.95264711902385 137.19254642049572 171.24003428876486 H 0.0 **** 0.06
8201 C 58.620109400305466 135.05273019472736 58.44227808982396 C 0.0 **** -0.24
8202 H 57.985580861898185 134.56242961871737 59.18051925258396 H 0.0 **** 0.06
8203 H 58.73865277140972 136.10435263842038 58.70464968430514 H 0.0 **** 0.06
8204 H 58.15802561528916 134.97469163557702 57.45701277843858 H 0.0 **** 0.06
8205 H 59.59680708666292 134.56923355560548 58.42360283086384 H 0.0 **** 0.06
8206 C 142.51541574687366 4.495643284931454 70.70763888913251 C 0.0 **** -0.24
8207 H 141.94977435222933 4.596424758080481 71.63362324899083 H 0.0 **** 0.06
8208 H 143.563314269216 4.733050302572067 70.89459544452586 H 0.0 **** 0.06
8209 H 142.11463599815045 5.181719938328243 69.961708229377 H 0.0 **** 0.06
8210 H 142.43330737323305 3.4725489781341707 70.3421223047298 H 0.0 **** 0.06
8211 C 149.46649460218168 207.15062503401305 62.91077107974412 C 0.0 **** -0.24
8212 H 150.1447436646821 207.79388915211456 63.47176272616484 H 0.0 **** 0.06
8213 H 149.51476098974825 206.13746108038754 63.30885308381784 H 0.0 **** 0.06
8214 H 149.75801260576242 207.1433525631731 61.86058181178011 H 0.0 **** 0.06
8215 H 148.4485950897797 207.52976536383738 63.00221686565051 H 0.0 **** 0.06
8216 C 101.0767454984002 51.9833291908099 188.3533200580916 C 0.0 **** -0.24
8217 H 101.37116291537394 51.49301104546683 189.28174919058313 H 0.0 **** 0.06
8218 H 100.48832980253881 51.29244744244774 187.74874538813526 H 0.0 **** 0.06
8219 H 101.9688419187256 52.27946328359158 187.8007291371459 H 0.0 **** 0.06
8220 H 100.48107693131344 52.86641656457458 188.58162853993835 H 0.0 **** 0.06
8221 C 199.02015910800378 51.51813324217926 208.36900621428413 C 0.0 **** -0.24
8222 H 199.79103444147378 51.64100078714894 207.60846567123744 H 0.0 **** 0.06
8223 H 199.047029116589 50.497368892476175 208.75084294391144 H 0.0 **** 0.06
8224 H 198.0423657942351 51.7170001963285 207.92996485911561 H 0.0 **** 0.06
8225 H 199.2007760129415 52.21595581254971 209.18628359726983 H 0.0 **** 0.06
8226 C 164.63739261158364 24.804274088537454 47.04091330391822 C 0.0 **** -0.24
8227 H 164.36728760240055 24.70180244566066 48.09143887020967 H 0.0 **** 0.06
8228 H 163.76578590135995 25.12505074299912 46.471112283225565 H 0.0 **** 0.06
8229 H 164.98751482944067 23.844149311695134 46.66146371928123 H 0.0 **** 0.06
8230 H 165.43113232825692 25.544927101266353 46.93976229921347 H 0.0 **** 0.06
8231 C 21.126131981012435 117.54288051502472 83.75856726739237 C 0.0 **** -0.24
8232 H 21.908795279181405 118.02746880023359 84.34249320149219 H 0.0 **** 0.06
8233 H 20.1511517206838 117.89447176951872 84.09637819389663 H 0.0 **** 0.06
8234 H 21.189375188200913 116.46280003606155 83.89069444536408 H 0.0 **** 0.06
8235 H 21.255246934746452 117.7879997926775 82.70398629916825 H 0.0 **** 0.06
8236 C 182.565049176411 143.05217165111281 194.99130611246443 C 0.0 **** -0.24
8237 H 182.92892820012906 142.822830247443 193.9900620348152 H 0.0 **** 0.06
8238 H 182.68315400153227 144.11876271543952 195.18548362978476 H 0.0 **** 0.06
8239 H 183.13698754178262 142.48368259925667 195.72447514903138 H 0.0 **** 0.06
8240 H 181.51142250709486 142.78428990598803 195.06557816099618 H 0.0 **** 0.06
8241 C 198.99823916060032 184.80996713830024 24.035796512553105 C 0.0 **** -0.24
8242 H 198.3413200469607 184.47674536621463 23.232527155092384 H 0.0 **** 0.06
8243 H 198.97136172141853 184.08514306092292 24.850691494385387 H 0.0 **** 0.06
8244 H 198.66008010069245 185.7793007679916 24.401285078308717 H 0.0 **** 0.06
8245 H 200.01729717324685 184.8975855861621 23.659320872548506 H 0.0 **** 0.06
8246 C 118.39184637395213 146.1979978485499 39.736197870340746 C 0.0 **** -0.24
8247 H 117.68641385287272 146.97188956036678 39.43356490169043 H 0.0 **** 0.06
8248 H 117.94836760193787 145.21654235073487 39.56499962130435 H 0.0 **** 0.06
8249 H 118.62575386312558 146.31237088356227 40.79413322455855 H 0.0 **** 0.06
8250 H 119.30554323011226 146.29037810449012 39.14868268959775 H 0.0 **** 0.06
8251 C 210.48794812723344 161.5973049423419 77.24968574751733 C 0.0 **** -0.24
8252 H 210.1965386158371 160.6560322555543 77.71495163955672 H 0.0 **** 0.06
8253 H 209.59912349160624 162.2064326216049 77.07595196521737 H 0.0 **** 0.06
8254 H 210.98091118977484 161.39504085296147 76.2992738480832 H 0.0 **** 0.06
8255 H 211.1722882421457 162.13174668865693 77.9079263940846 H 0.0 **** 0.06
8256 C 95.77330304805957 158.77417174678249 216.84991298879333 C 0.0 **** -0.24
8257 H 94.91739625598046 159.3751257963866 216.54107978606518 H 0.0 **** 0.06
8258 H 96.27033536749127 159.2582340768126 217.69118445958713 H 0.0 **** 0.06
8259 H 96.4716687338377 158.6826531759686 216.0180669357082 H 0.0 **** 0.06
8260 H 95.43244196821769 157.78383094514749 217.14892457410184 H 0.0 **** 0.06
8261 C 153.29789916012754 168.5196809272452 131.30495767607664 C 0.0 **** -0.24
8262 H 152.9521486817502 169.11089928923644 130.45697324651206 H 0.0 **** 0.06
8263 H 152.44239406559217 168.06199920645042 131.80140566689062 H 0.0 **** 0.06
8264 H 153.82390207613076 169.16695150057677 132.00786585023536 H 0.0 **** 0.06
8265 H 153.97452260588432 167.7409692190094 130.95193368649433 H 0.0 **** 0.06
8266 C 50.081715743414236 65.25618907794467 163.28674475860146 C 0.0 **** -0.24
8267 H 51.16182052575306 65.32855857957244 163.1588289536362 H 0.0 **** 0.06
8268 H 49.74463416385271 64.26623529078083 162.97730548119637 H 0.0 **** 0.06
8269 H 49.59311909362219 66.01465198564244 162.67485549314443 H 0.0 **** 0.06
8270 H 49.8286681017625 65.4156997181372 164.33501590079774 H 0.0 **** 0.06
8271 C 147.31833494900155 57.81534881800383 23.12936840052467 C 0.0 **** -0.24
8272 H 147.8519881059699 57.87880360910398 24.077607785891843 H 0.0 **** 0.06
8273 H 147.09526255889517 56.7706196107643 22.90724057551236 H 0.0 **** 0.06
8274 H 147.93734534789218 58.231707395462536 22.335319422356037 H 0.0 **** 0.06
8275 H 146.38772628414017 58.37913337624781 23.198133435993725 H 0.0 **** 0.06
8276 C 39.44910603837542 216.14843608671197 188.84943792460206 C 0.0 **** -0.24
8277 H 38.653377475705895 215.42966131000645 189.04113556568325 H 0.0 **** 0.06
8278 H 39.591340202921344 216.2543299710598 187.7736079765647 H 0.0 **** 0.06
8279 H 40.37455228406469 215.79539324587077 189.30510353227544 H 0.0 **** 0.06
8280 H 39.17808478811236 217.11352897288802 189.2772385039389 H 0.0 **** 0.06
8281 C 135.4558574570945 5.342325326410162 4.957891394617874 C 0.0 **** -0.24
8282 H 135.99175306981607 6.204961153762326 5.355313686479455 H 0.0 **** 0.06
8283 H 134.6227486677593 5.685137712072503 4.342682825583573 H 0.0 **** 0.06
8284 H 135.07446109230847 4.739660885119292 5.782198086076335 H 0.0 **** 0.06
8285 H 136.13347570456136 4.742617980034311 4.350627253329009 H 0.0 **** 0.06
8286 C 158.20841890657175 44.394516630594694 144.7740395545182 C 0.0 **** -0.24
8287 H 158.28360153103245 44.04847044506971 143.74332681981753 H 0.0 **** 0.06
8288 H 157.91602213077937 43.56369371255954 145.41629771419633 H 0.0 **** 0.06
8289 H 157.4596216050216 45.18450079617651 144.83851257207755 H 0.0 **** 0.06
8290 H 159.1745025525092 44.78217424939942 145.09865180164525 H 0.0 **** 0.06
8291 C 66.47085210974751 2.6407992471619863 109.64888600753345 C 0.0 **** -0.24
8292 H 66.81953857193844 2.7809249633713407 110.67175973433932 H 0.0 **** 0.06
8293 H 65.66847198939064 3.3488611047296715 109.4392107768194 H 0.0 **** 0.06
8294 H 66.09887436633863 1.622903991465222 109.52870715176293 H 0.0 **** 0.06
8295 H 67.29524470455306 2.8104391952797485 108.95740263970565 H 0.0 **** 0.06
8296 C 61.91157722962714 8.30122405486918 104.8775443680015 C 0.0 **** -0.24
8297 H 61.65488842774869 8.234364159504594 105.93455276057436 H 0.0 **** 0.06
8298 H 61.268804756357355 9.037788396586876 104.39365834418759 H 0.0 **** 0.06
8299 H 61.769333243470044 7.328522297321058 104.4067885140043 H 0.0 **** 0.06
8300 H 62.95389904985268 8.605482357813855 104.77500525890865 H 0.0 **** 0.06
8301 C 86.5762793153754 87.98996112015863 81.5534721452678 C 0.0 **** -0.24
8302 H 85.64831036292038 87.49855428333558 81.25951620270824 H 0.0 **** 0.06
8303 H 86.38797830001845 89.05059429575135 81.71936707597574 H 0.0 **** 0.06
8304 H 87.31651255788908 87.87099645634572 80.762735602825 H 0.0 **** 0.06
8305 H 86.9502391727378 87.53889624022645 82.47247357719213 H 0.0 **** 0.06
8306 C 144.3754350282694 70.85489402133676 4.336443313789637 C 0.0 **** -0.24
8307 H 144.8860782205163 69.93971598077017 4.634401035139113 H 0.0 **** 0.06
8308 H 143.45325525748655 70.60238672636989 3.8130938392889604 H 0.0 **** 0.06
8309 H 145.02210625479813 71.43275471527137 3.6752704926608217 H 0.0 **** 0.06
8310 H 144.14116016752655 71.44503808273198 5.22260944883007 H 0.0 **** 0.06
8311 C 161.29957773166268 150.19213848633092 137.20963316761583 C 0.0 **** -0.24
8312 H 160.69809504823473 151.06659223106288 136.96019504674706 H 0.0 **** 0.06
8313 H 160.75205734517704 149.56262134574456 137.91190003440204 H 0.0 **** 0.06
8314 H 162.23701748582204 150.51351582264255 137.66265351832465 H 0.0 **** 0.06
8315 H 161.51016761012528 149.62541067964906 136.30181398994245 H 0.0 **** 0.06
8316 C 19.287430275568596 23.625974954000725 51.252792094315595 C 0.0 **** -0.24
8317 H 19.589723302548364 22.655074741927876 50.859962812341976 H 0.0 **** 0.06
8318 H 19.39697168439683 23.62924394519601 52.337391621596495 H 0.0 **** 0.06
8319 H 18.246120952054568 23.814928793561364 50.991454229226036 H 0.0 **** 0.06
8320 H 19.916735003604032 24.403646275515044 50.82138046782745 H 0.0 **** 0.06
8321 C 83.5630596619057 179.58364915073022 135.9362856979091 C 0.0 **** -0.24
8322 H 84.51808861014308 179.3819650215115 135.44987293293974 H 0.0 **** 0.06
8323 H 83.51461053178764 179.03900520295065 136.87895095138907 H 0.0 **** 0.06
8324 H 82.7496376963582 179.2603963501934 135.28709661839906 H 0.0 **** 0.06
8325 H 83.4720246322155 180.6525276840268 136.12924279083182 H 0.0 **** 0.06
8326 C 127.49939978606163 43.72497591864618 10.572509605455537 C 0.0 **** -0.24
8327 H 126.968941171749 44.660023271577074 10.394615732261798 H 0.0 **** 0.06
8328 H 127.20179030110255 43.31694634619528 11.53870503467499 H 0.0 **** 0.06
8329 H 128.57292179313805 43.90964713641847 10.57143626159126 H 0.0 **** 0.06
8330 H 127.25211204220993 43.01204113496489 9.785573195902373 H 0.0 **** 0.06
8331 C 192.87779361785726 87.43424853864671 146.17146600924588 C 0.0 **** -0.24
8332 H 193.82058710720048 86.88620817063601 146.16730101569533 H 0.0 **** 0.06
8333 H 193.02567082272432 88.41239093378015 145.7135632605985 H 0.0 **** 0.06
8334 H 192.53652076300926 87.56063114089564 147.19862393416577 H 0.0 **** 0.06
8335 H 192.13145180395796 86.87648440933954 145.60622163598345 H 0.0 **** 0.06
8336 C 24.148616364629333 188.87757534679164 12.095157166403567 C 0.0 **** -0.24
8337 H 23.723851551637324 188.7444042546418 11.099632947914387 H 0.0 **** 0.06
8338 H 23.360643542008233 188.7810546555579 12.842373153387939 H 0.0 **** 0.06
8339 H 24.598256802544938 189.86760387666848 12.167462865391826 H 0.0 **** 0.06
8340 H 24.910263412304573 188.1179476014349 12.269612292365139 H 0.0 **** 0.06
8341 C 138.20192345567926 39.62805237477036 28.835609988781755 C 0.0 **** -0.24
8342 H 139.26339628322734 39.45970197208446 29.018124973441445 H 0.0 **** 0.06
8343 H 138.04007229346462 39.80641230802651 27.772852696974525 H 0.0 **** 0.06
8344 H 137.86968823363333 40.49664926311311 29.405045987230608 H 0.0 **** 0.06
8345 H 137.63670058546802 38.75071587732748 29.148061412534787 H 0.0 **** 0.06
8346 C 106.35775771007452 46.18416086090912 27.79000594115803 C 0.0 **** -0.24
8347 H 106.4950705248658 45.10598165347422 27.86570208675772 H 0.0 **** 0.06
8348 H 106.49511996097245 46.63745348120503 28.77206885193783 H 0.0 **** 0.06
8349 H 105.35230401720834 46.39841419417286 27.427945843370537 H 0.0 **** 0.06
8350 H 107.08924240106965 46.595161522571516 27.093701588189106 H 0.0 **** 0.06
8351 C 100.98248518061085 39.684359965897386 121.52233614541223 C 0.0 **** -0.24
8352 H 101.68169552801244 39.5636944760372 120.69477293337013 H 0.0 **** 0.06
8353 H 100.39022331533918 38.775244777805966 121.63257051687685 H 0.0 **** 0.06
8354 H 100.32114440359966 40.526637268335094 121.31963573711869 H 0.0 **** 0.06
8355 H 101.53671034324411 39.87128978895947 122.44156344581512 H 0.0 **** 0.06
8356 C 89.90884426637332 138.14159618369274 77.89647797034525 C 0.0 **** -0.24
8357 H 90.38335125853455 137.31940262233599 77.36075229454804 H 0.0 **** 0.06
8358 H 89.41191045160959 137.75556193127198 78.78765051880947 H 0.0 **** 0.06
8359 H 89.17507352199088 138.62154348407404 77.25044918875648 H 0.0 **** 0.06
8360 H 90.66624496488411 138.86876348772324 78.18888013780168 H 0.0 **** 0.06
8361 C 163.49050063182247 44.57006529581035 16.896697618283866 C 0.0 **** -0.24
8362 H 163.72300762998677 45.306543242076046 17.665048349024318 H 0.0 **** 0.06
8363 H 162.9895931005663 43.714798175671774 17.351911810236174 H 0.0 **** 0.06
8364 H 164.41321115544196 44.23999397866352 16.419899605843113 H 0.0 **** 0.06
8365 H 162.83538005826279 45.01913660961135 16.14938433283828 H 0.0 **** 0.06
8366 C 84.86447522121534 42.256616496628226 172.40347609619656 C 0.0 **** -0.24
8367 H 85.38301054713878 41.93032203879767 171.50170163065388 H 0.0 **** 0.06
8368 H 84.51410295015802 41.38406519959 172.95541780804746 H 0.0 **** 0.06
8369 H 84.01323948976443 42.87908565382844 172.12723703456993 H 0.0 **** 0.06
8370 H 85.5478814537978 42.83170576472634 173.0274908202027 H 0.0 **** 0.06
8371 C 174.70837905582806 51.56776453194868 194.85564467031512 C 0.0 **** -0.24
8372 H 175.49348096915 51.72433728153868 195.59570487373986 H 0.0 **** 0.06
8373 H 173.9125520707156 52.29570856696179 195.01153251093484 H 0.0 **** 0.06
8374 H 174.30558619149485 50.560373099474475 194.96076149738093 H 0.0 **** 0.06
8375 H 175.12406065256056 51.69082724792446 193.85511204717557 H 0.0 **** 0.06
8376 C 203.7744946729174 189.02151265126616 163.1816765983329 C 0.0 **** -0.24
8377 H 202.98394323301576 188.29143984185106 163.3596998469636 H 0.0 **** 0.06
8378 H 204.74312315554516 188.56593654793585 163.38940340833057 H 0.0 **** 0.06
8379 H 203.62786668779003 189.88073098359996 163.83723304279664 H 0.0 **** 0.06
8380 H 203.74052526916265 189.3473794553114 162.14307753845281 H 0.0 **** 0.06
8381 C 198.9731357234938 101.69138245279414 157.66319253469868 C 0.0 **** -0.24
8382 H 198.02595820199625 101.7807147935156 158.1945903162852 H 0.0 **** 0.06
8383 H 198.85845722366207 102.07662134061856 156.64948695833345 H 0.0 **** 0.06
8384 H 199.26999714178788 100.64365474765869 157.6240763129087 H 0.0 **** 0.06
8385 H 199.73775130291975 102.26711114744388 158.18667573115096 H 0.0 **** 0.06
8386 C 176.77540738497123 69.09428926910118 136.86980542128185 C 0.0 **** -0.24
8387 H 176.3582658981984 69.23181886316024 135.87234478389422 H 0.0 **** 0.06
8388 H 177.8639781275246 69.14035493449336 136.81654323187342 H 0.0 **** 0.06
8389 H 176.47092990529882 68.12350867609848 137.26043521364755 H 0.0 **** 0.06
8390 H 176.40972610704696 69.88213888320587 137.52818245732783 H 0.0 **** 0.06
8391 C 153.99095127532377 100.61684372248472 6.78110939066471 C 0.0 **** -0.24
8392 H 153.82149623651566 101.6433027763098 6.453707555886595 H 0.0 **** 0.06
8393 H 154.45591384235007 100.62192708872634 7.767155593488511 H 0.0 **** 0.06
8394 H 154.64758451983232 100.11382841790653 6.072015247658754 H 0.0 **** 0.06
8395 H 153.03790262645924 100.0905864706903 6.831405603191726 H 0.0 **** 0.06
8396 C 32.773824062407485 103.84958116403793 156.64184183701235 C 0.0 **** -0.24
8397 H 32.46716863612356 102.88534645585311 157.04757699556632 H 0.0 **** 0.06
8398 H 33.46050232473762 104.3334350015444 157.33610155553572 H 0.0 **** 0.06
8399 H 31.89615515878586 104.47925637702535 156.49923909535391 H 0.0 **** 0.06
8400 H 33.27158598111828 103.69806438884108 155.684231859176 H 0.0 **** 0.06
8401 C 58.9972312153852 191.2994587192936 103.5809615948225 C 0.0 **** -0.24
8402 H 59.24199846726751 190.94894633294172 102.57810806485583 H 0.0 **** 0.06
8403 H 58.104042305358604 191.92273434707084 103.53983743035229 H 0.0 **** 0.06
8404 H 59.830133682853955 191.88280497355709 103.97459820220433 H 0.0 **** 0.06
8405 H 58.81435285256805 190.4439032604609 104.22984484337542 H 0.0 **** 0.06
8406 C 15.163345942965066 195.20753950737972 13.752604808556924 C 0.0 **** -0.24
8407 H 14.971717705491756 195.18150073128396 12.680362429024456 H 0.0 **** 0.06
8408 H 14.881239767800821 194.25331012632512 14.195810748204337 H 0.0 **** 0.06
8409 H 14.577847492726903 196.00667995402642 14.206348386640457 H 0.0 **** 0.06
8410 H 16.223732897646926 195.3905781374575 13.927769049876588 H 0.0 **** 0.06
8411 C 111.81145016385419 99.63495455168409 174.14134708034382 C 0.0 **** -0.24
8412 H 112.7001670101347 99.27877888693523 174.66089339617574 H 0.0 **** 0.06
8413 H 111.99652117926131 100.63399052539104 173.7483751268244 H 0.0 **** 0.06
8414 H 110.97228673033304 99.66646161246815 174.8358434184436 H 0.0 **** 0.06
8415 H 111.57638722597436 98.95884024851752 173.31861624905252 H 0.0 **** 0.06
8416 C 190.1855470496874 171.65426398425956 212.40587697806637 C 0.0 **** -0.24
8417 H 189.3187765115945 171.84044849845742 211.77133123020334 H 0.0 **** 0.06
8418 H 191.03085880492986 171.35439878621332 211.78631742492823 H 0.0 **** 0.06
8419 H 189.95381692884965 170.8596985901118 213.11331183586105 H 0.0 **** 0.06
8420 H 190.43863769289652 172.56377617451454 212.95045280762827 H 0.0 **** 0.06
8421 C 68.0439525070313 202.52732251763373 55.64951373602338 C 0.0 **** -0.24
8422 H 69.04580778069085 202.10361436854612 55.582085652946375 H 0.0 **** 0.06
8423 H 67.6895658140494 202.7825427000079 54.65060739684941 H 0.0 **** 0.06
8424 H 68.07021603862302 203.42611941185194 56.266191543817456 H 0.0 **** 0.06
8425 H 67.37091877539451 201.7981720545088 56.09958297460804 H 0.0 **** 0.06
8426 C 17.188756129734855 121.7564353312207 92.96061668421491 C 0.0 **** -0.24
8427 H 16.439757644498684 121.08725341595164 92.53609461689827 H 0.0 **** 0.06
8428 H 16.97954259759659 122.77978194130691 92.64753112722484 H 0.0 **** 0.06
8429 H 18.178023851120088 121.46359657188071 92.60970934088861 H 0.0 **** 0.06
8430 H 17.15574601701411 121.6941085344015 94.0487089842331 H 0.0 **** 0.06
8431 C 71.97493627818504 133.8723774476008 121.57432214740955 C 0.0 **** -0.24
8432 H 71.06427838969675 134.14255775700803 121.04003482642263 H 0.0 **** 0.06
8433 H 72.83613734108415 134.02709037986654 120.92357965540829 H 0.0 **** 0.06
8434 H 71.92568119856556 132.82412940703625 121.86911719506251 H 0.0 **** 0.06
8435 H 72.07302022859757 134.49701784978532 122.46192004917465 H 0.0 **** 0.06
8436 C 203.2033375797892 133.30619972502598 97.41169976779214 C 0.0 **** -0.24
8437 H 202.3764771652065 132.77795526234064 97.8858176533064 H 0.0 **** 0.06
8438 H 203.67544860042267 132.6549828222996 96.67510972524722 H 0.0 **** 0.06
8439 H 203.9349946634519 133.58920684223233 98.16848310585401 H 0.0 **** 0.06
8440 H 202.8264017956076 134.20172209100576 96.91702689190784 H 0.0 **** 0.06
8441 C 179.27653782069967 122.5735788948247 80.5896126345141 C 0.0 **** -0.24
8442 H 178.1871697759703 122.5718756948542 80.56432456625411 H 0.0 **** 0.06
8443 H 179.62654000205367 121.74204191082514 81.20222496983227 H 0.0 **** 0.06
8444 H 179.6277610710987 123.51287822801665 81.01754152921485 H 0.0 **** 0.06
8445 H 179.66353348212937 122.46793243234221 79.57648415943756 H 0.0 **** 0.06
8446 C 78.76596417060024 38.545317034604096 34.3735916610417 C 0.0 **** -0.24
8447 H 77.94195659301637 38.294242237127165 33.70527279660898 H 0.0 **** 0.06
8448 H 78.5570535331771 39.495416516788794 34.86538476563044 H 0.0 **** 0.06
8449 H 79.68808664317503 38.62813423556476 33.79684074218591 H 0.0 **** 0.06
8450 H 78.87554679316288 37.76295973779598 35.123824842086506 H 0.0 **** 0.06
8451 C 34.72358372624146 76.94157898392724 18.882927003115697 C 0.0 **** -0.24
8452 H 33.96949508289305 77.27447624929708 18.16938241862998 H 0.0 **** 0.06
8453 H 35.17044616505109 76.01154518459084 18.531135538352473 H 0.0 **** 0.06
8454 H 34.256245034388456 76.7751397514247 19.854143604657352 H 0.0 **** 0.06
8455 H 35.49559104692298 77.70420492270678 18.977792620668367 H 0.0 **** 0.06
8456 C 205.2403209739952 37.914411029544425 124.04192535220754 C 0.0 **** -0.24
8457 H 205.6458450910858 37.89038511970267 125.05403409370548 H 0.0 **** 0.06
8458 H 204.17729412783132 37.67499959347717 124.0708602206059 H 0.0 **** 0.06
8459 H 205.7621703420605 37.18406653424702 123.42503374009262 H 0.0 **** 0.06
8460 H 205.37745463542575 38.91017800766252 123.62039407235007 H 0.0 **** 0.06
8461 C 209.78284049910894 43.214166963670976 179.30113827502308 C 0.0 **** -0.24
8462 H 209.4510631459465 42.395725534466294 178.66197979907565 H 0.0 **** 0.06
8463 H 210.73305742534788 42.950386217488415 179.7648985995474 H 0.0 **** 0.06
8464 H 209.03751945931657 43.39483046221196 180.0758520210967 H 0.0 **** 0.06
8465 H 209.9080467743451 44.114880313744834 178.7002481144489 H 0.0 **** 0.06
8466 C 17.47777771251664 17.08652539156435 164.69904134748194 C 0.0 **** -0.24
8467 H 16.558327522738836 17.189290482472586 165.2747025397326 H 0.0 **** 0.06
8468 H 17.378089905303696 17.626432843752582 163.75706659629668 H 0.0 **** 0.06
8469 H 17.663185513654184 16.03206768909135 164.4966826994292 H 0.0 **** 0.06
8470 H 18.310012037644526 17.4997203194726 165.26859389997185 H 0.0 **** 0.06
8471 C 70.05144932334134 28.338677009091597 122.5112587657021 C 0.0 **** -0.24
8472 H 70.64898112584622 29.249599067829323 122.46824836890009 H 0.0 **** 0.06
8473 H 69.82039997227442 28.104781239249164 123.55032281417341 H 0.0 **** 0.06
8474 H 70.61237373156409 27.51539648578712 122.06909802343962 H 0.0 **** 0.06
8475 H 69.1248326184511 28.486427500742238 121.9569958285225 H 0.0 **** 0.06
8476 C 82.64296582134081 46.429578488643784 122.85928963314542 C 0.0 **** -0.24
8477 H 81.85839975342968 47.07838575065881 123.25044354418436 H 0.0 **** 0.06
8478 H 83.52926307236139 46.513965259395064 123.48819121003216 H 0.0 **** 0.06
8479 H 82.88894517639623 46.73176124626539 121.84081582807947 H 0.0 **** 0.06
8480 H 82.29410310973371 45.39709903264692 122.85823532043592 H 0.0 **** 0.06
8481 C 210.98397704469684 182.51775722792144 137.93921471554432 C 0.0 **** -0.24
8482 H 211.69206333269227 181.8813251058708 138.47018938905006 H 0.0 **** 0.06
8483 H 210.01226699133218 182.470772176072 138.43224020928318 H 0.0 **** 0.06
8484 H 210.8856250448128 182.17183884105145 136.91001575589104 H 0.0 **** 0.06
8485 H 211.3455248936413 183.5461917311121 137.9444842173587 H 0.0 **** 0.06
8486 C 66.16877393580847 121.19700399563264 187.73858934171818 C 0.0 **** -0.24
8487 H 65.37805685280055 121.82062241881037 188.154200545391 H 0.0 **** 0.06
8488 H 67.0120427886112 121.82503595988983 187.45010599491263 H 0.0 **** 0.06
8489 H 65.79143176708118 120.66883611447749 186.86266884198267 H 0.0 **** 0.06
8490 H 66.49284599794079 120.47354079021095 188.4866865446773 H 0.0 **** 0.06
8491 C 149.77247141639475 171.822885623127 117.48513306989325 C 0.0 **** -0.24
8492 H 149.40606549208042 171.35771911793213 118.39973240357334 H 0.0 **** 0.06
8493 H 149.07252446006663 171.62687454503518 116.67237476255637 H 0.0 **** 0.06
8494 H 150.74892376986003 171.40895509667826 117.2329139933049 H 0.0 **** 0.06
8495 H 149.8631703570283 172.89897405557312 117.63614478979493 H 0.0 **** 0.06
8496 C 118.22989474648527 182.0062772851618 27.284444584461355 C 0.0 **** -0.24
8497 H 118.40811162752446 181.5342199452701 26.31853478588208 H 0.0 **** 0.06
8498 H 117.70988223238125 182.95229278641872 27.13588220091428 H 0.0 **** 0.06
8499 H 119.18406090083799 182.18955765248342 27.77978831898041 H 0.0 **** 0.06
8500 H 117.61955869402767 181.34854145186273 27.902789635971118 H 0.0 **** 0.06
8501 C 58.02419546748223 75.60754563066968 18.33111619729391 C 0.0 **** -0.24
8502 H 58.429118177912414 75.78064745900116 19.328121457870367 H 0.0 **** 0.06
8503 H 58.06371062098651 76.5331860684791 17.75673873235968 H 0.0 **** 0.06
8504 H 56.990239923121294 75.273480834733 18.412139442371114 H 0.0 **** 0.06
8505 H 58.615026384044484 74.84238309459903 17.827264767316876 H 0.0 **** 0.06
8506 C 65.44012871928665 84.35716671775896 102.8239694392742 C 0.0 **** -0.24
8507 H 65.36034406769299 85.41903524560706 103.05642755013052 H 0.0 **** 0.06
8508 H 66.3764977512305 83.96691513604969 103.22250158654445 H 0.0 **** 0.06
8509 H 65.4193046877359 84.2198135780207 101.74271155295621 H 0.0 **** 0.06
8510 H 64.60304074667076 83.82400981149237 103.27434769270003 H 0.0 **** 0.06
8511 C 211.12711589230912 92.46461397275601 110.90159998986586 C 0.0 **** -0.24
8512 H 210.56873843256147 92.12344833113804 111.77331883994795 H 0.0 **** 0.06
8513 H 212.19217402634902 92.30556588703377 111.0670810945649 H 0.0 **** 0.06
8514 H 210.93732860648862 93.52645680571311 110.74285575683608 H 0.0 **** 0.06
8515 H 210.806706802229 91.90376919617802 110.02330203532775 H 0.0 **** 0.06
8516 C 108.14714716105057 207.56093908416918 18.198583589987265 C 0.0 **** -0.24
8517 H 107.95572504615332 207.827912833264 17.15936045490635 H 0.0 **** 0.06
8518 H 108.5751243353999 206.55861441314812 18.24270792517953 H 0.0 **** 0.06
8519 H 107.21197215117063 207.58246744119373 18.75696548925424 H 0.0 **** 0.06
8520 H 108.84675229384077 208.2742674630095 18.6339643593669 H 0.0 **** 0.06
8521 C 85.9209575609567 102.89433623551217 203.87168403314504 C 0.0 **** -0.24
8522 H 85.5496388130703 102.46109857822209 204.80043946779665 H 0.0 **** 0.06
8523 H 86.57470700175976 103.73666565542301 204.1002862459318 H 0.0 **** 0.06
8524 H 85.07991871523059 103.2388260343367 203.27025526019077 H 0.0 **** 0.06
8525 H 86.47983615121616 102.13974790824729 203.31773338284287 H 0.0 **** 0.06
8526 C 186.7197878597139 141.35740058601283 116.81653400985697 C 0.0 **** -0.24
8527 H 187.7930458514179 141.19457411604077 116.91472748964564 H 0.0 **** 0.06
8528 H 186.50308517600632 142.41996133296095 116.92583057817062 H 0.0 **** 0.06
8529 H 186.19570614163516 140.7967198169859 117.5904807543104 H 0.0 **** 0.06
8530 H 186.38954983613172 141.01771491080376 115.83432087368654 H 0.0 **** 0.06
8531 C 88.53840097922098 151.90663540325806 154.8721520934768 C 0.0 **** -0.24
8532 H 89.51662401914488 151.60975081790866 155.24981114177933 H 0.0 **** 0.06
8533 H 88.58893918479735 152.03157027371913 153.78982897641475 H 0.0 **** 0.06
8534 H 88.24079439893386 152.8476597172026 155.33368614831613 H 0.0 **** 0.06
8535 H 87.80675018171273 151.1353876481328 155.115105104037 H 0.0 **** 0.06
8536 C 16.281631266943265 189.1516145693517 2.2535499654177897 C 0.0 **** -0.24
8537 H 16.819183416268515 190.0526397073544 2.5494292116516704 H 0.0 **** 0.06
8538 H 15.791139941160225 189.32046479086438 1.2946745793516357 H 0.0 **** 0.06
8539 H 15.533095125340253 188.91193767676342 3.008044995280528 H 0.0 **** 0.06
8540 H 16.984049381591177 188.32343428164629 2.162246451867503 H 0.0 **** 0.06
8541 C 161.75872091900033 208.34131797970255 42.47094495330879 C 0.0 **** -0.24
8542 H 161.25460692497126 209.2575987195906 42.164721484669144 H 0.0 **** 0.06
8543 H 162.8283241006699 208.5293251106954 42.56581061681936 H 0.0 **** 0.06
8544 H 161.59063553296852 207.56646839510987 41.72198261372347 H 0.0 **** 0.06
8545 H 161.36087130163978 208.01086420632146 43.430387562737735 H 0.0 **** 0.06
8546 C 85.74503772977891 28.495349968535493 94.48347181804372 C 0.0 **** -0.24
8547 H 85.90263073933687 27.73914236766339 93.71495010008776 H 0.0 **** 0.06
8548 H 85.96012273590947 29.48155201898959 94.07238534518457 H 0.0 **** 0.06
8549 H 86.40715310935053 28.29907775393383 95.32694830446239 H 0.0 **** 0.06
8550 H 84.70862402225367 28.459210246647046 94.82033187520678 H 0.0 **** 0.06
8551 C 125.1947642439636 32.23073771190752 57.02845649791004 C 0.0 **** -0.24
8552 H 125.41724262645211 33.26637484169294 57.284903834361785 H 0.0 **** 0.06
8553 H 124.78973594224037 32.18572748227041 56.01735843361644 H 0.0 **** 0.06
8554 H 124.4635321107444 31.831248604318773 57.73152631332255 H 0.0 **** 0.06
8555 H 126.10934268319305 31.639246648696457 57.08115141296423 H 0.0 **** 0.06
8556 C 94.80339637482575 215.76975501824612 147.5400050760718 C 0.0 **** -0.24
8557 H 95.8278921110591 216.14105766043872 147.56786137187538 H 0.0 **** 0.06
8558 H 94.74515523814631 214.8244582155587 148.08107816652318 H 0.0 **** 0.06
8559 H 94.50118230147257 215.61506112615277 146.50374275057828 H 0.0 **** 0.06
8560 H 94.14065882684963 216.49812135036183 148.00689217051467 H 0.0 **** 0.06
8561 C 207.57072191468475 77.5726130108958 152.00584343337215 C 0.0 **** -0.24
8562 H 207.56148705711166 77.28920083982757 153.0570876255668 H 0.0 **** 0.06
8563 H 208.21112070136013 76.88697740615066 151.45037573927527 H 0.0 **** 0.06
8564 H 207.95433508075251 78.58840186921793 151.90630407328433 H 0.0 **** 0.06
8565 H 206.557421120804 77.52687060940053 151.60792603573054 H 0.0 **** 0.06
8566 C 172.12303538908924 214.87497228525072 161.86275980443415 C 0.0 **** -0.24
8567 H 173.03950368721343 215.4330930986303 161.6703639666331 H 0.0 **** 0.06
8568 H 171.51782834797905 215.41253810181306 162.59307862224924 H 0.0 **** 0.06
8569 H 172.37347168252697 213.8883933371749 162.25378383601293 H 0.0 **** 0.06
8570 H 171.5621423533517 214.76665599522238 160.93466513604162 H 0.0 **** 0.06
8571 C 99.34814809099576 63.10775662774712 127.54771401108161 C 0.0 **** -0.24
8572 H 99.10964262851057 63.49713577503263 128.53736554442133 H 0.0 **** 0.06
8573 H 100.41571539744233 63.219473731090176 127.36100446740744 H 0.0 **** 0.06
8574 H 98.7869926947623 63.661402292507276 126.79482939947013 H 0.0 **** 0.06
8575 H 99.07810686953472 62.052506886079655 127.49808667758782 H 0.0 **** 0.06
8576 C 89.8582315723988 66.54896749092609 207.96428359717217 C 0.0 **** -0.24
8577 H 89.31536360063929 66.56529079293988 207.01955239661072 H 0.0 **** 0.06
8578 H 90.09338917693854 67.57088561992423 208.26502336589724 H 0.0 **** 0.06
8579 H 90.78161128179612 65.98380649910773 207.84391302126733 H 0.0 **** 0.06
8580 H 89.24061215616219 66.07781589672351 208.72986089117774 H 0.0 **** 0.06
8581 C 0.9483131940437559 27.354641400747482 49.45008258329483 C 0.0 **** -0.24
8582 H 1.081626682684245 28.007653899481795 48.58748283263003 H 0.0 **** 0.06
8583 H 0.016895299716424006 26.796976095619982 49.34322622397934 H 0.0 **** 0.06
8584 H 0.9106857951734213 27.955702174317253 50.35809428270892 H 0.0 **** 0.06
8585 H 1.7841020883089769 26.657498790950825 49.50995948251091 H 0.0 **** 0.06
8586 C 20.906722884537487 129.24548332540877 4.96352733311565 C 0.0 **** -0.24
8587 H 21.60789055203813 130.05074953316034 5.181344604545529 H 0.0 **** 0.06
8588 H 19.954384679899505 129.67001856724465 4.6451236320899625 H 0.0 **** 0.06
8589 H 20.7554082443242 128.643547283035 5.859695855913742 H 0.0 **** 0.06
8590 H 21.30979592313446 128.61840041396408 4.168150511624759 H 0.0 **** 0.06
8591 C 109.17742063356779 39.693227684797876 123.72530989488111 C 0.0 **** -0.24
8592 H 110.01186628403853 40.34246117079837 123.98747100395657 H 0.0 **** 0.06
8593 H 108.8159213130072 39.94972693869559 122.72859803017344 H 0.0 **** 0.06
8594 H 108.37355711525801 39.8255624480625 124.4487793650889 H 0.0 **** 0.06
8595 H 109.50812522397858 38.654274540583344 123.73530929495105 H 0.0 **** 0.06
8596 C 105.5781500013082 21.32676964831242 45.06326942452547 C 0.0 **** -0.24
8597 H 105.61115024786365 22.05446321899656 44.251659167988365 H 0.0 **** 0.06
8598 H 106.54682129162755 21.293061767369082 45.560302441145424 H 0.0 **** 0.06
8599 H 105.34210569428105 20.3423797329268 44.65868850338151 H 0.0 **** 0.06
8600 H 104.81007839784662 21.61831473759011 45.77983457477069 H 0.0 **** 0.06
8601 C 54.512938274556916 35.0778895744441 82.01192273803065 C 0.0 **** -0.24
8602 H 53.76427853235657 35.34685078232306 82.75807662344522 H 0.0 **** 0.06
8603 H 55.47316605325574 34.920687211506305 82.50192288653744 H 0.0 **** 0.06
8604 H 54.604384170692185 35.883245385683665 81.28290915280445 H 0.0 **** 0.06
8605 H 54.2074906282304 34.162644493076584 81.50554511118145 H 0.0 **** 0.06
8606 C 46.439127888428516 25.392385631138367 135.78722396084555 C 0.0 **** -0.24
8607 H 47.347298964299966 25.251859022505187 136.37358793483253 H 0.0 **** 0.06
8608 H 46.03618670763714 26.387164991341834 135.973797118599 H 0.0 **** 0.06
8609 H 45.701936729846125 24.641642306458536 136.07313094710895 H 0.0 **** 0.06
8610 H 46.671630781488204 25.287055902563182 134.72775278064813 H 0.0 **** 0.06
8611 C 21.21178967891258 69.94756922114783 36.989549961635646 C 0.0 **** -0.24
8612 H 21.227963037237757 69.3326191780586 36.089692748096354 H 0.0 **** 0.06
8613 H 20.287096448538435 70.52351764278973 37.01973232231046 H 0.0 **** 0.06
8614 H 22.06371812754476 70.62608895010351 36.97985453234031 H 0.0 **** 0.06
8615 H 21.26816475440846 69.3046282862492 37.868432750596924 H 0.0 **** 0.06
8616 C 60.53110832068111 173.50947277176988 192.90840269401517 C 0.0 **** -0.24
8617 H 61.37341281524414 173.17814768979258 192.30260740383463 H 0.0 **** 0.06
8618 H 59.62799334910443 173.52500779826124 192.29840913245505 H 0.0 **** 0.06
8619 H 60.72989997014986 174.5117077004437 193.28915875658075 H 0.0 **** 0.06
8620 H 60.39255720951192 172.82381695112952 193.74544860282998 H 0.0 **** 0.06
8621 C 52.289187019251955 149.1190652454436 215.23757514994537 C 0.0 **** -0.24
8622 H 53.06113456443198 148.3528688119909 215.1641642945106 H 0.0 **** 0.06
8623 H 52.66202290629424 150.05225377929867 214.81443248872625 H 0.0 **** 0.06
8624 H 52.029802535539474 149.27299275350475 216.28496483233675 H 0.0 **** 0.06
8625 H 51.40405047451037 148.7982568277207 214.68769752363346 H 0.0 **** 0.06
8626 C 201.3953994039853 126.49751648122992 64.34014797542358 C 0.0 **** -0.24
8627 H 201.11484672730276 126.21812127374363 63.325559084584555 H 0.0 **** 0.06
8628 H 201.81409476867233 125.63085210500725 64.85295516039587 H 0.0 **** 0.06
8629 H 200.51404152463908 126.84751973415234 64.87811838199801 H 0.0 **** 0.06
8630 H 202.13966443138412 127.29379030554207 64.30488154079306 H 0.0 **** 0.06
8631 C 86.35720257726236 27.092724202390798 176.01098685837968 C 0.0 **** -0.24
8632 H 86.94911563445494 26.187532507018147 176.14327838984235 H 0.0 **** 0.06
8633 H 85.53309613401537 27.095049378012163 176.72442171956737 H 0.0 **** 0.06
8634 H 85.96038266569785 27.121530475767926 174.99657112503598 H 0.0 **** 0.06
8635 H 86.9873379203567 27.965696644445984 176.17892937475568 H 0.0 **** 0.06
8636 C 46.23519416161628 149.54704040471273 25.151070283712727 C 0.0 **** -0.24
8637 H 45.63188907025443 150.31855806872147 25.629912224609313 H 0.0 **** 0.06
8638 H 45.649192819482494 148.63272856714423 25.05954202995636 H 0.0 **** 0.06
8639 H 47.12137850006394 149.35265840158587 25.756077812108344 H 0.0 **** 0.06
8640 H 46.538479040551806 149.88592577118283 24.160496143843176 H 0.0 **** 0.06
8641 C 203.43195412656672 133.93708719072634 30.908437670505293 C 0.0 **** -0.24
8642 H 204.0236332775899 134.8494872357279 30.839473452066343 H 0.0 **** 0.06
8643 H 203.3398397042182 133.64179442957214 31.95369565661106 H 0.0 **** 0.06
8644 H 203.92470786855196 133.14258978160763 30.347020915960243 H 0.0 **** 0.06
8645 H 202.44055813118544 134.11431981977495 30.491793087838786 H 0.0 **** 0.06
8646 C 214.74594585565012 1.8743515155626085 61.01829897696287 C 0.0 **** -0.24
8647 H 215.15194869897408 0.9538259329648966 60.598090110850634 H 0.0 **** 0.06
8648 H 214.5662091949457 1.737102186388519 62.08526032378863 H 0.0 **** 0.06
8649 H 213.8082567094878 2.1173394187150194 60.519427184747386 H 0.0 **** 0.06
8650 H 215.45732913996972 2.685981830021113 60.870234231345876 H 0.0 **** 0.06
8651 C 170.97785864694274 216.0082009250011 171.5681965001132 C 0.0 **** -0.24
8652 H 171.12143001389248 215.99026072703168 172.64931008171476 H 0.0 **** 0.06
8653 H 170.97383206573468 217.0409544127714 171.22003252737085 H 0.0 **** 0.06
8654 H 170.02775008683528 215.53679971993435 171.32042294568586 H 0.0 **** 0.06
8655 H 171.79029546532536 215.46444398993577 171.08624116324813 H 0.0 **** 0.06
8656 C 146.62174995660945 107.59884627506939 80.13010859278957 C 0.0 **** -0.24
8657 H 146.82026008903455 108.41453647899648 80.82585737461865 H 0.0 **** 0.06
8658 H 147.26156818132426 107.70527895489313 79.25374743958484 H 0.0 **** 0.06
8659 H 145.5756055525465 107.62926317592148 79.8235407285121 H 0.0 **** 0.06
8660 H 146.82939563426595 106.646365228806 80.61869152513744 H 0.0 **** 0.06
8661 C 167.81594607907033 81.88814813633383 98.3766989969946 C 0.0 **** -0.24
8662 H 168.3334852553735 81.15822798934835 97.75291542526031 H 0.0 **** 0.06
8663 H 168.16009320324974 81.79382613142491 99.40645976865244 H 0.0 **** 0.06
8664 H 166.74244974806822 81.70501005266681 98.33274217396524 H 0.0 **** 0.06
8665 H 168.02825031432872 82.89251868782253 98.01125839797533 H 0.0 **** 0.06
8666 C 80.61504109765248 184.53479198245032 44.13569857091451 C 0.0 **** -0.24
8667 H 81.21048024609145 183.79758538632592 43.597043957136435 H 0.0 **** 0.06
8668 H 80.75897635055249 185.51774044924707 43.68573178011184 H 0.0 **** 0.06
8669 H 80.92886285180704 184.56260191131074 45.17953220887654 H 0.0 **** 0.06
8670 H 79.56199535077396 184.2606286113452 44.081263109320446 H 0.0 **** 0.06
8671 C 187.33539505398957 93.86805093688129 107.72890981315317 C 0.0 **** -0.24
8672 H 187.3988448474653 93.27009935796654 108.63886980953129 H 0.0 **** 0.06
8673 H 186.29347421507282 93.94737719952896 107.4184755224652 H 0.0 **** 0.06
8674 H 187.91491506051284 93.389518223091 106.93886351329718 H 0.0 **** 0.06
8675 H 187.73533162280313 94.86331548041277 107.92063188195232 H 0.0 **** 0.06
8676 C 2.4596385682283994 76.01337409788512 113.83199831394661 C 0.0 **** -0.24
8677 H 2.22362544079283 75.24500318064112 114.56854572061725 H 0.0 **** 0.06
8678 H 3.4849347257172383 76.35277386471934 113.97888848602985 H 0.0 **** 0.06
8679 H 1.777388974350771 76.85455223705263 113.95301054264901 H 0.0 **** 0.06
8680 H 2.3530054370589255 75.60028370494094 112.82979782964166 H 0.0 **** 0.06
8681 C 154.4516472783318 65.68813847794267 19.7849679838925 C 0.0 **** -0.24
8682 H 153.55236249937013 65.45646541650201 19.21460177800151 H 0.0 **** 0.06
8683 H 154.75536862616974 66.7157215334419 19.5843625280973 H 0.0 **** 0.06
8684 H 155.252259932571 65.00803198704317 19.49214432471146 H 0.0 **** 0.06
8685 H 154.24700256369255 65.5709906990912 20.84977787195902 H 0.0 **** 0.06
8686 C 131.9602158412295 28.237480383365778 198.23632879583107 C 0.0 **** -0.24
8687 H 131.18342214915242 29.002434871586416 198.24335277023033 H 0.0 **** 0.06
8688 H 132.0770966530323 27.84847766165325 197.22507121889032 H 0.0 **** 0.06
8689 H 131.6765342882161 27.426307862301996 198.90721929519594 H 0.0 **** 0.06
8690 H 132.90164998690267 28.6722713323515 198.57005726810246 H 0.0 **** 0.06
8691 C 207.669425232469 16.81511689786349 15.445073262639823 C 0.0 **** -0.24
8692 H 207.622864251068 16.95786144779855 16.524913164447867 H 0.0 **** 0.06
8693 H 206.99790947340998 16.005683871967534 15.157174124369561 H 0.0 **** 0.06
8694 H 208.6892241966543 16.562727803704945 15.156620607955404 H 0.0 **** 0.06
8695 H 207.36613160515998 17.734078332191658 14.944503610517813 H 0.0 **** 0.06
8696 C 147.96671987652218 49.841264626682815 38.10807230390208 C 0.0 **** -0.24
8697 H 148.08065419716337 50.90722564948774 38.307045210780814 H 0.0 **** 0.06
8698 H 147.1004257944714 49.46259688987732 38.6497691115342 H 0.0 **** 0.06
8699 H 148.86200238407935 49.313261723742144 38.438642006220675 H 0.0 **** 0.06
8700 H 147.8257081158551 49.68445069511459 37.03888606991734 H 0.0 **** 0.06
8701 C 199.0227597106853 87.71018779588807 7.642963599769601 C 0.0 **** -0.24
8702 H 198.35132349166622 87.43956934554531 8.457666729562277 H 0.0 **** 0.06
8703 H 198.4834756385813 88.31612545459821 6.914110803359932 H 0.0 **** 0.06
8704 H 199.39162430247418 86.80520333422903 7.159728479217179 H 0.0 **** 0.06
8705 H 199.86387310325998 88.27882231360051 8.039170840469936 H 0.0 **** 0.06
8706 C 185.02767830284142 140.6005517735744 19.50604982335284 C 0.0 **** -0.24
8707 H 184.92352996612226 140.6928771456034 20.587009712496524 H 0.0 **** 0.06
8708 H 185.46757202551112 141.51438720282732 19.105095363249916 H 0.0 **** 0.06
8709 H 184.04663293812 140.44180991529538 19.058428163965687 H 0.0 **** 0.06
8710 H 185.67457329904943 139.75353459053696 19.275481159756197 H 0.0 **** 0.06
8711 C 48.03501398918439 1.6392819771438454 146.902521664941 C 0.0 **** -0.24
8712 H 48.911932429764974 1.6107443297303448 147.5494573585778 H 0.0 **** 0.06
8713 H 47.139818618032095 1.7671848997688713 147.51136994823128 H 0.0 **** 0.06
8714 H 47.964853496473395 0.706699915039593 146.3437468280655 H 0.0 **** 0.06
8715 H 48.12379583130421 2.473787949941837 146.2073068102934 H 0.0 **** 0.06
8716 C 213.0392721623857 11.339477188039325 189.59314322600935 C 0.0 **** -0.24
8717 H 213.40977482097503 11.06766546885234 190.58124458503517 H 0.0 **** 0.06
8718 H 212.49683944833993 12.283574959012412 189.65645444916197 H 0.0 **** 0.06
8719 H 212.37003603827054 10.56060337352912 189.228575376999 H 0.0 **** 0.06
8720 H 213.87909220629712 11.447096071601806 188.9066517058767 H 0.0 **** 0.06
8721 C 5.127652060447716 46.61431112482818 15.863708842399745 C 0.0 **** -0.24
8722 H 4.257763133703932 46.428816248628934 16.494730286601737 H 0.0 **** 0.06
8723 H 5.1417531714682525 47.66263365916261 15.565296105603977 H 0.0 **** 0.06
8724 H 5.074148532638972 45.984678691971936 14.976609931809037 H 0.0 **** 0.06
8725 H 6.035596350754375 46.38253806773365 16.41966975526219 H 0.0 **** 0.06
8726 C 88.64624626390413 111.52321283582422 156.8655027961272 C 0.0 **** -0.24
8727 H 89.4863821342772 112.07930884051054 156.45097647703756 H 0.0 **** 0.06
8728 H 89.01970113536773 110.70727113836138 157.48382935446006 H 0.0 **** 0.06
8729 H 88.04253501736774 111.11732906869408 156.05279420001602 H 0.0 **** 0.06
8730 H 88.03482847189399 112.19013420835545 157.47330975739345 H 0.0 **** 0.06
8731 C 124.2965881185823 203.81160901792475 118.6068976103686 C 0.0 **** -0.24
8732 H 124.36953440056571 204.1428379901273 117.57177186064365 H 0.0 **** 0.06
8733 H 125.16382743292483 204.16852097455015 119.16489761948623 H 0.0 **** 0.06
8734 H 124.26695919350512 202.72235052638834 118.63834926040835 H 0.0 **** 0.06
8735 H 123.38704138326794 204.21330444206237 119.05385472721184 H 0.0 **** 0.06
8736 C 210.31131186697442 86.96007755029525 140.72238778732753 C 0.0 **** -0.24
8737 H 210.08826889634005 85.91153752481229 140.91736924698984 H 0.0 **** 0.06
8738 H 211.24208415092124 87.03582580571218 140.15970643542914 H 0.0 **** 0.06
8739 H 210.41485488214903 87.49168559560438 141.66917598672643 H 0.0 **** 0.06
8740 H 209.49981008194862 87.40381151192771 140.14486274409495 H 0.0 **** 0.06
8741 C 197.32551437547085 92.85586643936591 19.580417075073072 C 0.0 **** -0.24
8742 H 197.32676712552183 92.9022687397736 20.66951550817076 H 0.0 **** 0.06
8743 H 197.06384337841524 91.84689621125534 19.260821215027306 H 0.0 **** 0.06
8744 H 198.31642647863242 93.11069746598446 19.205380439397985 H 0.0 **** 0.06
8745 H 196.59581972160598 93.56280229182249 19.187262491057822 H 0.0 **** 0.06
8746 C 122.19698139977676 41.52046265281311 62.7989988746984 C 0.0 **** -0.24
8747 H 122.25654818624797 40.913254637055644 63.701630217721615 H 0.0 **** 0.06
8748 H 121.31374478449784 42.15886749776888 62.84826859969709 H 0.0 **** 0.06
8749 H 122.12550458347742 40.869367130729984 61.92746756087929 H 0.0 **** 0.06
8750 H 123.08946044712995 42.141052679238044 62.71744331583231 H 0.0 **** 0.06
8751 C 137.75267252152673 126.57998910899742 189.06599468086245 C 0.0 **** -0.24
8752 H 137.60766878950943 127.53766777444254 188.56536144178085 H 0.0 **** 0.06
8753 H 137.1216229133206 126.53540567489831 189.9540233166473 H 0.0 **** 0.06
8754 H 138.79769323785092 126.47764740131679 189.35687093953425 H 0.0 **** 0.06
8755 H 137.48340689282048 125.77093005185436 188.38792272384714 H 0.0 **** 0.06
8756 C 75.2927171156851 114.29145083463614 180.61805739242817 C 0.0 **** -0.24
8757 H 74.29040899069457 114.18080911006426 181.03254258817194 H 0.0 **** 0.06
8758 H 75.96344658845447 114.67619901604787 181.38659168286318 H 0.0 **** 0.06
8759 H 75.26407731565092 114.9876727688599 179.77912894619524 H 0.0 **** 0.06
8760 H 75.6523117379914 113.32225285945565 180.27338926494681 H 0.0 **** 0.06
8761 C 176.39920303535018 170.72823937435967 183.05052707228128 C 0.0 **** -0.24
8762 H 177.34641349308362 170.19141090006391 183.09756605799913 H 0.0 **** 0.06
8763 H 176.43265993821592 171.58357351165358 183.72580279096303 H 0.0 **** 0.06
8764 H 175.5890481788644 170.06252917960109 183.34722249251791 H 0.0 **** 0.06
8765 H 176.22968412641188 171.07643287221964 182.0317033573547 H 0.0 **** 0.06
8766 C 185.04127250990965 168.66857614114974 138.59465973462733 C 0.0 **** -0.24
8767 H 185.8926766851005 168.03276047625383 138.3542257769103 H 0.0 **** 0.06
8768 H 184.75207535163275 168.50930066283203 139.6338509952742 H 0.0 **** 0.06
8769 H 184.203921888388 168.41712186161266 137.94192942411945 H 0.0 **** 0.06
8770 H 185.31474836274586 169.71283946335075 138.44852902768673 H 0.0 **** 0.06
8771 C 67.12775548353372 193.93851255679027 174.0601351721898 C 0.0 **** -0.24
8772 H 67.84551807611906 194.37527126827095 174.7552990692633 H 0.0 **** 0.06
8773 H 66.30187759092651 193.4997586646248 174.6208765391829 H 0.0 **** 0.06
8774 H 67.61899032295396 193.16487802308515 173.47117757305978 H 0.0 **** 0.06
8775 H 66.74685686560011 194.71425093135318 173.39719450821917 H 0.0 **** 0.06
8776 C 30.584763473951625 64.4265641228316 20.98200757222874 C 0.0 **** -0.24
8777 H 29.84798455137218 64.12968325331977 20.23440625100008 H 0.0 **** 0.06
8778 H 30.070768381742653 64.78434052384148 21.874719309648313 H 0.0 **** 0.06
8779 H 31.20977814941584 65.22326859453781 20.57850072158506 H 0.0 **** 0.06
8780 H 31.207705633824972 63.56973339260463 21.238064785376835 H 0.0 **** 0.06
8781 C 175.89202050672725 215.00582285499942 95.87417997685084 C 0.0 **** -0.24
8782 H 175.24023458680443 214.13745684327387 95.78038917884952 H 0.0 **** 0.06
8783 H 175.32710482855606 215.91032212324237 95.64775450568384 H 0.0 **** 0.06
8784 H 176.7234780275275 214.91252723446485 95.1757227834719 H 0.0 **** 0.06
8785 H 176.27775366521286 215.0625878842121 96.89158735940906 H 0.0 **** 0.06
8786 C 107.92035504395817 212.61789616109007 165.00097895379554 C 0.0 **** -0.24
8787 H 107.79664812748352 213.49505483131756 165.63611075329317 H 0.0 **** 0.06
8788 H 108.76555029644173 212.02890858690859 165.35582081091707 H 0.0 **** 0.06
8789 H 108.10382914526518 212.93644135426177 163.9750543254062 H 0.0 **** 0.06
8790 H 107.01475538896806 212.01331400819774 165.0371286729566 H 0.0 **** 0.06
8791 C 182.81817609142524 167.6476030518165 212.04387411664402 C 0.0 **** -0.24
8792 H 183.35408002281696 168.5763245212675 212.24100745533246 H 0.0 **** 0.06
8793 H 182.84968259559506 167.0146923856926 212.9312103435942 H 0.0 **** 0.06
8794 H 183.28802301823086 167.12712099806393 211.2095268097563 H 0.0 **** 0.06
8795 H 181.78164184051894 167.87322839310607 211.7945047551877 H 0.0 **** 0.06
8796 C 128.35548399424556 0.1030333800027563 88.15116252790078 C 0.0 **** -0.24
8797 H 128.46468875678852 -0.9086552065115825 87.76013226754871 H 0.0 **** 0.06
8798 H 128.1523578993005 0.7898182485348002 87.32879126767385 H 0.0 **** 0.06
8799 H 129.27588971688363 0.3994162705823783 88.65339017513513 H 0.0 **** 0.06
8800 H 127.5280754436945 0.13024495147166704 88.86048386830207 H 0.0 **** 0.06
8801 C 162.18206871477867 7.52040884483354 201.48460203119245 C 0.0 **** -0.24
8802 H 162.397896494688 6.481381861981944 201.23749391710274 H 0.0 **** 0.06
8803 H 161.11401542100242 7.707266847620133 201.36658334543537 H 0.0 **** 0.06
8804 H 162.74237791845565 8.175924440029547 200.8191224970202 H 0.0 **** 0.06
8805 H 162.47325349135173 7.715835139428293 202.51692859565298 H 0.0 **** 0.06
8806 C 29.519961629365753 177.27508893035446 166.07471124729088 C 0.0 **** -0.24
8807 H 29.521977578641042 176.3982193622133 165.42767738122646 H 0.0 **** 0.06
8808 H 29.861983080125242 178.1428088140878 165.51037298684935 H 0.0 **** 0.06
8809 H 30.18830678703233 177.10418929008748 166.91956462296864 H 0.0 **** 0.06
8810 H 28.50968941023976 177.45455956439858 166.4416900774556 H 0.0 **** 0.06
8811 C 103.87169440248601 170.08205915860893 78.14520462937156 C 0.0 **** -0.24
8812 H 103.69730346521806 170.85771554358246 77.39810212907452 H 0.0 **** 0.06
8813 H 103.53370556859431 170.43388764185545 79.11951124922189 H 0.0 **** 0.06
8814 H 104.93660340841876 169.8539037977942 78.18942087113385 H 0.0 **** 0.06
8815 H 103.31793032368381 169.18333713418582 77.87076660155901 H 0.0 **** 0.06
8816 C 98.8697180919951 106.23290924192685 39.74297364251237 C 0.0 **** -0.24
8817 H 98.16678081295983 107.02245496893278 40.00693168403916 H 0.0 **** 0.06
8818 H 99.48850200578518 105.99309232281928 40.6090847736948 H 0.0 **** 0.06
8819 H 99.50513325232772 106.5700175326478 38.924274855690044 H 0.0 **** 0.06
8820 H 98.31853609130927 105.34479617521248 39.433692668017954 H 0.0 **** 0.06
8821 C 32.92121057133127 66.55315531258033 165.53151018507424 C 0.0 **** -0.24
8822 H 33.78431281640211 65.93235352121917 165.29228481430908 H 0.0 **** 0.06
8823 H 32.045025099106894 65.91988378452773 165.67036739663 H 0.0 **** 0.06
8824 H 32.738718285308735 67.25137775883427 164.7134006863125 H 0.0 **** 0.06
8825 H 33.11774421670761 67.11019004398817 166.44721644776047 H 0.0 **** 0.06
8826 C 13.48629808512473 198.6015196135218 43.12416341664506 C 0.0 **** -0.24
8827 H 12.409114973216958 198.67043179550245 42.97169114065677 H 0.0 **** 0.06
8828 H 13.837115002330876 197.62400506871495 42.79435903572052 H 0.0 **** 0.06
8829 H 13.711394900304526 198.7309648639425 44.18232667020645 H 0.0 **** 0.06
8830 H 13.984462080950692 199.38015097879475 42.54799335651917 H 0.0 **** 0.06
8831 C 78.85290022594548 115.71520885240643 9.988931256695423 C 0.0 **** -0.24
8832 H 78.95658088821456 116.16383596685021 9.001482447066394 H 0.0 **** 0.06
8833 H 79.57030960478433 116.17050396860382 10.671886073631072 H 0.0 **** 0.06
8834 H 79.04466758488356 114.64393171877957 9.922360000179538 H 0.0 **** 0.06
8835 H 77.84199932048146 115.88153925606845 10.359646341899804 H 0.0 **** 0.06
8836 C 3.3186057939759337 139.03784635663766 27.57093021936106 C 0.0 **** -0.24
8837 H 2.661647874562874 139.61570591567272 28.22069844898718 H 0.0 **** 0.06
8838 H 4.053247165773882 139.70157668055668 27.11560919052124 H 0.0 **** 0.06
8839 H 2.7268909709310947 138.558959767741 26.790331505852578 H 0.0 **** 0.06
8840 H 3.8309102992599833 138.27525270495744 28.15715896788774 H 0.0 **** 0.06
8841 C 117.8295945344703 121.80551846842557 174.23449288682124 C 0.0 **** -0.24
8842 H 117.81793688789783 120.7960803064321 174.6461673226239 H 0.0 **** 0.06
8843 H 116.81705661358744 122.0945235589062 173.95171176366412 H 0.0 **** 0.06
8844 H 118.47340900206596 121.82980836536326 173.35463943994628 H 0.0 **** 0.06
8845 H 118.2104707828366 122.49909131261374 174.98297341422852 H 0.0 **** 0.06
8846 C 32.62770210110273 113.46256195367441 132.7785396036905 C 0.0 **** -0.24
8847 H 32.73894207361447 113.14572039391065 131.7418341386092 H 0.0 **** 0.06
8848 H 32.35401236826094 112.60520303857312 133.3934060577149 H 0.0 **** 0.06
8849 H 31.84688109832561 114.22134749993016 132.84400119950988 H 0.0 **** 0.06
8850 H 33.57014191048586 113.87925187313617 133.13327872744622 H 0.0 **** 0.06
8851 C 202.7461532726931 203.10960640677402 66.01756497979125 C 0.0 **** -0.24
8852 H 203.00106049405488 202.11290208176524 65.65658444864744 H 0.0 **** 0.06
8853 H 201.81893900551512 203.06228866615373 66.5902742448879 H 0.0 **** 0.06
8854 H 202.6159292379481 203.78159162059765 65.16972732015131 H 0.0 **** 0.06
8855 H 203.5479229329516 203.48049044031302 66.65614197856465 H 0.0 **** 0.06
8856 C 177.2032704187871 60.03615657225379 202.53050140925862 C 0.0 **** -0.24
8857 H 178.06113989487216 59.393110129500656 202.33320626048504 H 0.0 **** 0.06
8858 H 177.5515549116183 61.00617169192361 202.88659512180766 H 0.0 **** 0.06
8859 H 176.57145110140505 59.57554903122946 203.28898552605395 H 0.0 **** 0.06
8860 H 176.63112597415233 60.169043389773776 201.61242027934 H 0.0 **** 0.06
8861 C 57.485762958403896 213.05592213479792 185.2172305310111 C 0.0 **** -0.24
8862 H 56.79783159676508 212.3297250084005 184.78475127800584 H 0.0 **** 0.06
8863 H 57.32475919191283 213.11422350165824 186.2939179891453 H 0.0 **** 0.06
8864 H 57.308006051843975 214.0344467244035 184.77013740695003 H 0.0 **** 0.06
8865 H 58.511736007506656 212.74670265014157 185.01941056975335 H 0.0 **** 0.06
8866 C 58.73601371049506 103.72319452192146 148.73155877563607 C 0.0 **** -0.24
8867 H 59.13880874643576 103.33134850354405 147.7973259344098 H 0.0 **** 0.06
8868 H 57.72093490666248 103.35171131822644 148.87275506364927 H 0.0 **** 0.06
8869 H 58.723196952709145 104.81191785886621 148.6921716601645 H 0.0 **** 0.06
8870 H 59.362499351541544 103.39694313123415 149.56167015775043 H 0.0 **** 0.06
8871 C 137.10169602625717 22.144093282625732 64.76549738242339 C 0.0 **** -0.24
8872 H 136.45636484343515 22.322951143248872 65.62616903026692 H 0.0 **** 0.06
8873 H 136.6406464217759 21.400611912957785 64.11474177246916 H 0.0 **** 0.06
8874 H 138.0698373424384 21.77882768254365 65.1078912599654 H 0.0 **** 0.06
8875 H 137.23838866680074 23.075351371035524 64.21511965395898 H 0.0 **** 0.06
8876 C 216.78103722481652 120.90209985787898 32.17270872159321 C 0.0 **** -0.24
8877 H 216.34852658682055 121.13362062705922 31.19981057543839 H 0.0 **** 0.06
8878 H 217.7405115004282 121.41127609358178 32.273032411891165 H 0.0 **** 0.06
8879 H 216.93026974486583 119.82568900384088 32.25649095328396 H 0.0 **** 0.06
8880 H 216.10688941512205 121.2383521458605 32.96027031343587 H 0.0 **** 0.06
8881 C 199.06126846550373 79.13361368651054 64.49099521531008 C 0.0 **** -0.24
8882 H 200.0653193214282 78.7215357585445 64.38857059915466 H 0.0 **** 0.06
8883 H 199.11804024935614 80.22077721860414 64.54729405493453 H 0.0 **** 0.06
8884 H 198.60063253678794 78.74595005927618 65.39956034094888 H 0.0 **** 0.06
8885 H 198.460284772182 78.84465762109294 63.62866283592899 H 0.0 **** 0.06
8886 C 117.7567390612964 184.12451238307975 30.570088416260887 C 0.0 **** -0.24
8887 H 118.80018125967666 184.17680999493285 30.880476030006434 H 0.0 **** 0.06
8888 H 117.1758891319979 183.60863689403797 31.33424479098204 H 0.0 **** 0.06
8889 H 117.68468229855966 183.580530428313 29.627848209925162 H 0.0 **** 0.06
8890 H 117.36699823640805 185.1338845416304 30.437494769523653 H 0.0 **** 0.06
8891 C 159.9620741324429 206.38683033432824 213.45996545454256 C 0.0 **** -0.24
8892 H 160.92146805806277 206.54637451117318 213.95097468945983 H 0.0 **** 0.06
8893 H 159.64365575283486 207.31014789953105 212.97492569941357 H 0.0 **** 0.06
8894 H 159.21963841918534 206.0912882785671 214.20222569556836 H 0.0 **** 0.06
8895 H 160.06194192525774 205.59949151825703 212.71330546697578 H 0.0 **** 0.06
8896 C 142.76564069258728 126.31428735076672 196.30540398007957 C 0.0 **** -0.24
8897 H 141.98971550108166 126.63404486859567 195.60913938930784 H 0.0 **** 0.06
8898 H 142.54483216228653 125.30681544006346 196.65769232035595 H 0.0 **** 0.06
8899 H 142.79640048129914 126.99777388614491 197.1540718373673 H 0.0 **** 0.06
8900 H 143.73092636402077 126.31939818875306 195.79984826956797 H 0.0 **** 0.06
8901 C 41.87840881812494 113.57524733806594 78.25593335200504 C 0.0 **** -0.24
8902 H 42.863068677902405 113.85845503114632 77.88368007302644 H 0.0 **** 0.06
8903 H 41.35029306009346 113.00543195785588 77.49073185392983 H 0.0 **** 0.06
8904 H 41.30926901526459 114.47284328168263 78.4981224228447 H 0.0 **** 0.06
8905 H 41.9910045192393 112.96425908157886 79.15119905821909 H 0.0 **** 0.06
8906 C 44.41693952333985 81.89446143613736 192.00930181772029 C 0.0 **** -0.24
8907 H 44.27832121429587 82.83506481574176 192.5428122594945 H 0.0 **** 0.06
8908 H 43.644947060956255 81.18774164022875 192.31446556448927 H 0.0 **** 0.06
8909 H 45.399182539938565 81.48468445585303 192.24487690410595 H 0.0 **** 0.06
8910 H 44.344952439714305 82.07159134839293 190.936212357226 H 0.0 **** 0.06
8911 C 53.577258843767595 119.09826053131441 193.828917757937 C 0.0 **** -0.24
8912 H 53.81844210162029 120.08464964313625 194.22668818680992 H 0.0 **** 0.06
8913 H 53.54867470038579 119.14334471754823 192.74003782587295 H 0.0 **** 0.06
8914 H 52.60489218554335 118.78327683363862 194.20621667294773 H 0.0 **** 0.06
8915 H 54.338129120008205 118.38427336699489 194.1439620184259 H 0.0 **** 0.06
8916 C 97.62484156419434 22.847910669487305 123.18980751532978 C 0.0 **** -0.24
8917 H 98.18499366352806 23.32439181634379 122.38524522479757 H 0.0 **** 0.06
8918 H 98.13907277631195 21.939709334065583 123.5021818262204 H 0.0 **** 0.06
8919 H 96.62485148157289 22.597007899958612 122.83585444856611 H 0.0 **** 0.06
8920 H 97.54923621178828 23.532872926559236 124.03451378326245 H 0.0 **** 0.06
8921 C 99.09124964447302 47.67476966981329 79.94425481084068 C 0.0 **** -0.24
8922 H 100.02583613787267 48.128726899493955 79.6146033914984 H 0.0 **** 0.06
8923 H 99.30776304184009 46.77298792271674 80.51736280542741 H 0.0 **** 0.06
8924 H 98.48689929068611 47.41687385775458 79.07430967215907 H 0.0 **** 0.06
8925 H 98.54600787752138 48.381280576759565 80.5696937626359 H 0.0 **** 0.06
8926 C 143.45939118180502 19.29731670183682 167.43045380767143 C 0.0 **** -0.24
8927 H 143.3912627481156 19.083672651640725 168.4971209874186 H 0.0 **** 0.06
8928 H 142.8321862054313 20.155453928468475 167.19078833316212 H 0.0 **** 0.06
8929 H 143.11997548464672 18.42953497885287 166.86359754072072 H 0.0 **** 0.06
8930 H 144.49426715152794 19.518373839068104 167.17037767385634 H 0.0 **** 0.06
8931 C 130.6548372603346 15.879483127452716 91.19801311207969 C 0.0 **** -0.24
8932 H 131.6249222485559 15.97471489008484 90.70913870988018 H 0.0 **** 0.06
8933 H 130.2000083255686 16.864834656777475 91.29618708489089 H 0.0 **** 0.06
8934 H 130.78896976756113 15.441016994917817 92.18666525038547 H 0.0 **** 0.06
8935 H 130.00872980753968 15.237445348527217 90.59958368336028 H 0.0 **** 0.06
8936 C 198.43039777273705 17.631252270110323 188.07960211214268 C 0.0 **** -0.24
8937 H 199.31056527138986 17.89673043109063 188.66379097630707 H 0.0 **** 0.06
8938 H 197.55135764329106 18.11675025353817 188.50427764342675 H 0.0 **** 0.06
8939 H 198.29347619013885 16.550007318219727 188.099551376702 H 0.0 **** 0.06
8940 H 198.56548687137894 17.960289213156543 187.04906061882545 H 0.0 **** 0.06
8941 C 92.74605917352153 174.0928748559433 140.47879392917412 C 0.0 **** -0.24
8942 H 93.19392222304401 174.71561025426863 139.704440361649 H 0.0 **** 0.06
8943 H 93.04394004375189 174.46248518956867 141.46000202396664 H 0.0 **** 0.06
8944 H 93.08623326152338 173.06424069596366 140.35929710428434 H 0.0 **** 0.06
8945 H 91.65999395646577 174.1285654795857 140.3906482063107 H 0.0 **** 0.06
8946 C 10.92032592650284 92.87845912401282 188.85635342104035 C 0.0 **** -0.24
8947 H 10.323234482712763 92.1626660438062 189.4218410160339 H 0.0 **** 0.06
8948 H 10.603030362071195 93.8922645183958 189.10282512898516 H 0.0 **** 0.06
8949 H 10.78287595887241 92.7027302647377 187.78909852037089 H 0.0 **** 0.06
8950 H 11.972418327264222 92.75483596780451 189.1120231743827 H 0.0 **** 0.06
8951 C 43.9776709389059 167.2492767743944 98.29051688196533 C 0.0 **** -0.24
8952 H 44.40049062671828 166.28620391768254 98.57689482147931 H 0.0 **** 0.06
8953 H 44.47098914306096 167.6076617928615 97.38746735338627 H 0.0 **** 0.06
8954 H 44.12813528580003 167.96639302304754 99.09664458881535 H 0.0 **** 0.06
8955 H 42.910863995826745 167.13448387819943 98.10045462488735 H 0.0 **** 0.06
8956 C 148.7055457542442 139.74472461422727 44.481796182415536 C 0.0 **** -0.24
8957 H 147.93219409481452 140.46860232804875 44.22628025263998 H 0.0 **** 0.06
8958 H 148.2427769314819 138.78511534790096 44.71386777093119 H 0.0 **** 0.06
8959 H 149.26201720464132 140.09916051246137 45.350105387123506 H 0.0 **** 0.06
8960 H 149.38552775909665 139.62653104831531 43.63855251721807 H 0.0 **** 0.06
8961 C 50.03819635372736 130.57313255742974 141.84949533317956 C 0.0 **** -0.24
8962 H 50.59066971664092 131.01568033198822 142.67852234814893 H 0.0 **** 0.06
8963 H 49.275218142801435 131.2721375602598 141.50752254869855 H 0.0 **** 0.06
8964 H 49.56255354018805 129.64952293372556 142.18169156996794 H 0.0 **** 0.06
8965 H 50.72399384692511 130.3544565485284 141.03140259611865 H 0.0 **** 0.06
8966 C 16.48924463782683 6.861293192324055 117.19705642826284 C 0.0 **** -0.24
8967 H 15.67053218613026 7.188832895856294 116.555626138982 H 0.0 **** 0.06
8968 H 16.100913646985617 6.626761813427322 118.18891288746221 H 0.0 **** 0.06
8969 H 17.230021534439146 7.656679702529672 117.2752038225209 H 0.0 **** 0.06
8970 H 16.95314220530973 5.972801258608754 116.76909818078599 H 0.0 **** 0.06
8971 C 215.32291503859372 216.22474769808358 197.5570866691637 C 0.0 **** -0.24
8972 H 214.30675036515694 215.8607228248439 197.4048224647478 H 0.0 **** 0.06
8973 H 215.32892898106954 217.31453458170168 197.50968890314005 H 0.0 **** 0.06
8974 H 215.9730592664298 215.82296456601594 196.77991234206166 H 0.0 **** 0.06
8975 H 215.68292154171857 215.9007688197729 198.53392296670538 H 0.0 **** 0.06
8976 C 17.42701893080971 62.16843954578911 86.20212348877425 C 0.0 **** -0.24
8977 H 17.94963365460113 61.47556296770267 85.54415844326473 H 0.0 **** 0.06
8978 H 17.60345500240946 61.886867433236546 87.2408739963459 H 0.0 **** 0.06
8979 H 16.358158594355984 62.13245718576462 85.9920164108621 H 0.0 **** 0.06
8980 H 17.796508786678615 63.180447041456205 86.03208750121058 H 0.0 **** 0.06
8981 C 68.16544056611576 5.645198535366021 210.93206515456583 C 0.0 **** -0.24
8982 H 68.97474606826842 4.988692530963384 210.61354420446764 H 0.0 **** 0.06
8983 H 68.35989854275613 5.9966916136705635 211.94594920541087 H 0.0 **** 0.06
8984 H 67.22407103996869 5.097387798371422 210.9116464278974 H 0.0 **** 0.06
8985 H 68.10478940377664 6.499422680931843 210.25708315692293 H 0.0 **** 0.06
8986 C 59.40172838238857 24.02650663956865 122.89120256812883 C 0.0 **** -0.24
8987 H 60.09400829781505 24.69706532196483 122.38181399986625 H 0.0 **** 0.06
8988 H 59.574686657671805 24.076051980933073 123.96702823201964 H 0.0 **** 0.06
8989 H 59.56203373074044 23.00629556199999 122.54297034111458 H 0.0 **** 0.06
8990 H 58.377325278105275 24.3285368767865 122.67296839366306 H 0.0 **** 0.06
8991 C 215.85285401196418 32.73706507832809 121.14901277947702 C 0.0 **** -0.24
8992 H 215.05132405216773 32.029814034634825 120.93589586108142 H 0.0 **** 0.06
8993 H 216.57522323058538 32.725396976296395 120.33289471060264 H 0.0 **** 0.06
8994 H 216.34861767799836 32.454309010269256 122.07801360912002 H 0.0 **** 0.06
8995 H 215.43499065951124 33.738528386767626 121.2504158978612 H 0.0 **** 0.06
8996 C 134.90750996192577 93.94513529978117 36.60888026893093 C 0.0 **** -0.24
8997 H 135.03842383012562 95.02221588499076 36.7145406393077 H 0.0 **** 0.06
8998 H 135.504332854484 93.43102762925228 37.36259034769424 H 0.0 **** 0.06
8999 H 135.2313286657054 93.63602872149038 35.61540118248843 H 0.0 **** 0.06
9000 H 133.85532587287173 93.69245603475603 36.743431316325854 H 0.0 **** 0.06
9001 C 193.2324106348337 117.89447904919206 131.36851218667334 C 0.0 **** -0.24
9002 H 192.72807729759515 116.9589913626358 131.12684959893312 H 0.0 **** 0.06
9003 H 193.10392599325556 118.59886234793606 130.5461047344275 H 0.0 **** 0.06
9004 H 194.2946543508848 117.7057321891482 131.5238410229926 H 0.0 **** 0.06
9005 H 192.80180391395842 118.31508675978523 132.2774352575032 H 0.0 **** 0.06
9006 C 165.7787858867381 180.41776211465816 10.83952493542813 C 0.0 **** -0.24
9007 H 165.27341808879413 179.55734698733087 11.277874487769907 H 0.0 **** 0.06
9008 H 166.01516507321043 181.1388115979539 11.623592343863606 H 0.0 **** 0.06
9009 H 165.12683855312486 180.885194402779 10.101317055991956 H 0.0 **** 0.06
9010 H 166.69918961482404 180.09095956140948 10.356373620724554 H 0.0 **** 0.06
9011 C 124.15313251587285 160.49580650855822 151.66330765448356 C 0.0 **** -0.24
9012 H 123.87574859331939 161.47348444387208 152.05636507675416 H 0.0 **** 0.06
9013 H 124.81013234168209 159.9924926563512 152.3727951708317 H 0.0 **** 0.06
9014 H 124.67065939499919 160.61944812770918 150.71263799809583 H 0.0 **** 0.06
9015 H 123.25475428923669 159.89641963173824 151.5130342886104 H 0.0 **** 0.06
9016 C 121.7543876779368 111.4965983529051 61.630983751540256 C 0.0 **** -0.24
9017 H 122.42556290699413 112.0660097009166 60.98880336539882 H 0.0 **** 0.06
9018 H 121.71598282562279 111.95926276292494 62.61672653379111 H 0.0 **** 0.06
9019 H 122.12002512280473 110.47392921217909 61.722652838631106 H 0.0 **** 0.06
9020 H 120.7550008275236 111.48771605529708 61.19442311736779 H 0.0 **** 0.06
9021 C 196.9759994712851 199.9467569564079 30.30598685535209 C 0.0 **** -0.24
9022 H 196.58504942716922 199.00650311395918 30.694591935808617 H 0.0 **** 0.06
9023 H 197.01514049564187 199.90218662175658 29.217210654040343 H 0.0 **** 0.06
9024 H 197.97858598749917 200.11316322958217 30.698824418455743 H 0.0 **** 0.06
9025 H 196.32522197483007 200.76517486033367 30.613320413103466 H 0.0 **** 0.06
9026 C 163.60018449046953 98.31241412492186 135.54335872429533 C 0.0 **** -0.24
9027 H 164.4336643170766 98.30066688782644 134.84067136416473 H 0.0 **** 0.06
9028 H 162.88230875383812 97.53900704782659 135.26809144253485 H 0.0 **** 0.06
9029 H 163.11328113910088 99.28716323810853 135.51405976760117 H 0.0 **** 0.06
9030 H 163.97198732598298 98.12204191332235 136.550989230957 H 0.0 **** 0.06
9031 C 71.43294031311007 193.49563677763837 122.36806324336204 C 0.0 **** -0.24
9032 H 70.87095069094522 193.79237049639573 123.25379791389817 H 0.0 **** 0.06
9033 H 72.49873593873184 193.64103220518177 122.5487591702133 H 0.0 **** 0.06
9034 H 71.12112712326723 194.10461055098426 121.51940216963375 H 0.0 **** 0.06
9035 H 71.24100635108817 192.44460508430348 122.15128945071653 H 0.0 **** 0.06
9036 C 152.9816585281228 184.07733090254652 104.38426185477338 C 0.0 **** -0.24
9037 H 153.46966877539643 183.88891305776593 105.3406272944279 H 0.0 **** 0.06
9038 H 152.3920069331977 183.20567579359505 104.10025216335193 H 0.0 **** 0.06
9039 H 153.7379719756251 184.26880752516047 103.62291711521543 H 0.0 **** 0.06
9040 H 152.32938381785425 184.94473375217325 104.47520745325302 H 0.0 **** 0.06
9041 C 212.9806749918734 81.59421941696019 164.50102977477786 C 0.0 **** -0.24
9042 H 212.64425939795876 81.97685362270948 163.53755442715982 H 0.0 **** 0.06
9043 H 213.8506751927914 82.16107918015632 164.83325831730383 H 0.0 **** 0.06
9044 H 213.2489469654942 80.54302935364558 164.40101119403005 H 0.0 **** 0.06
9045 H 212.17863987118398 81.6973149165691 165.2321960530095 H 0.0 **** 0.06
9046 C 92.13537004112237 156.95538126241576 136.89284865781076 C 0.0 **** -0.24
9047 H 91.74963243951521 157.88594654674392 137.30891101701218 H 0.0 **** 0.06
9048 H 92.09469495690928 156.17477307194866 137.65246864561158 H 0.0 **** 0.06
9049 H 93.16750239906196 157.10103895666344 136.5751620871137 H 0.0 **** 0.06
9050 H 91.52865047185918 156.66209327136914 136.03646110216016 H 0.0 **** 0.06
9051 C 210.87672782772128 13.29782867530551 147.0786399065056 C 0.0 **** -0.24
9052 H 211.1369777028366 13.523798592387323 148.11219141340297 H 0.0 **** 0.06
9053 H 210.40585968755366 12.315450089161459 147.0302491835173 H 0.0 **** 0.06
9054 H 211.77865064935668 13.299508786712806 146.4671486754898 H 0.0 **** 0.06
9055 H 210.18316303164895 14.051956644414105 146.70569885381326 H 0.0 **** 0.06
9056 C 91.95991623401903 122.36977808953031 13.584239200753075 C 0.0 **** -0.24
9057 H 91.11587319298292 121.71988715287227 13.352732707561756 H 0.0 **** 0.06
9058 H 92.6852574626298 121.82220753114325 14.186561982353453 H 0.0 **** 0.06
9059 H 91.60777497182619 123.23874666125886 14.139274581368966 H 0.0 **** 0.06
9060 H 92.43129033884384 122.69745516550353 12.658158584177727 H 0.0 **** 0.06
9061 C 194.45492307485546 215.61297649729158 102.37397182243558 C 0.0 **** -0.24
9062 H 195.5434863569216 215.66436649934226 102.34185960617117 H 0.0 **** 0.06
9063 H 194.12377273022085 214.6549019530292 101.97282127700589 H 0.0 **** 0.06
9064 H 194.03491171773953 216.423271332772 101.77746458181912 H 0.0 **** 0.06
9065 H 194.11807321547184 215.7102808930922 103.40671825169932 H 0.0 **** 0.06
9066 C 124.94855420535815 36.15092146906218 151.34359134984913 C 0.0 **** -0.24
9067 H 124.78760861655242 35.07837504422167 151.23480338854176 H 0.0 **** 0.06
9068 H 124.60920869608346 36.661127144045565 150.4422928831056 H 0.0 **** 0.06
9069 H 126.01037232677031 36.345870773214074 151.49429365151366 H 0.0 **** 0.06
9070 H 124.38594789026287 36.516649977529624 152.20271120965128 H 0.0 **** 0.06
9071 C 174.26419744882392 194.47058928168636 194.34134650509057 C 0.0 **** -0.24
9072 H 174.6877953060306 195.28720910257488 193.7566225857041 H 0.0 **** 0.06
9073 H 173.5762061897281 193.89719950726757 193.7186400247667 H 0.0 **** 0.06
9074 H 173.7264136601913 194.87722880351888 195.19757546145948 H 0.0 **** 0.06
9075 H 175.06618107513768 193.82021597508813 194.69124073210546 H 0.0 **** 0.06
9076 C 3.6466535241334554 173.2675696932648 130.5910554292189 C 0.0 **** -0.24
9077 H 3.9816464189669034 173.03172361997616 129.58063099432638 H 0.0 **** 0.06
9078 H 4.395749497874107 172.9333534464973 131.30888260862866 H 0.0 **** 0.06
9079 H 2.7026081919256058 172.76013526769347 130.78819203715324 H 0.0 **** 0.06
9080 H 3.506923778563248 174.34416224404123 130.68507246398883 H 0.0 **** 0.06
9081 C 202.67787541496352 202.48020461633763 76.55104066927811 C 0.0 **** -0.24
9082 H 203.28194080361453 203.25006680648013 76.07045003404784 H 0.0 **** 0.06
9083 H 202.68882205023533 201.57678618813813 75.94044303697592 H 0.0 **** 0.06
9084 H 201.65371444690362 202.8357771500121 76.65689242889385 H 0.0 **** 0.06
9085 H 203.08942104027722 202.25820818463126 77.53587158204493 H 0.0 **** 0.06
9086 C 211.8039105022286 142.27699858329032 57.424886825345666 C 0.0 **** -0.24
9087 H 211.73627529534494 142.3275359325238 58.51098699049017 H 0.0 **** 0.06
9088 H 210.81857081158668 142.44857830463775 56.991431831289276 H 0.0 **** 0.06
9089 H 212.164409823892 141.29153024339513 57.12931528910295 H 0.0 **** 0.06
9090 H 212.49633282660935 143.03893899170367 57.06789485870523 H 0.0 **** 0.06
9091 C 122.61420066030293 22.962662272210622 13.770760562975909 C 0.0 **** -0.24
9092 H 123.27943517976233 23.70680507637411 13.332266930658704 H 0.0 **** 0.06
9093 H 121.6263455827101 23.046216704072776 13.315759278223595 H 0.0 **** 0.06
9094 H 122.53623132624641 23.13271125408272 14.844198148102663 H 0.0 **** 0.06
9095 H 123.01555547240703 21.965786751798873 13.588659913198114 H 0.0 **** 0.06
9096 C 126.58641108983846 8.220145996960525 124.67155848602046 C 0.0 **** -0.24
9097 H 127.20746961287864 7.910957957674839 125.51167942209547 H 0.0 **** 0.06
9098 H 127.09038621834486 7.971197431685255 123.73721602582425 H 0.0 **** 0.06
9099 H 126.41934498626904 9.296261989309698 124.71972930011479 H 0.0 **** 0.06
9100 H 125.62878741354592 7.701697564885592 124.71842268647192 H 0.0 **** 0.06
9101 C 143.168720761166 44.00061747926935 85.12011387010425 C 0.0 **** -0.24
9102 H 143.14836394121465 44.30918497531184 84.074472510918 H 0.0 **** 0.06
9103 H 142.4636456611472 43.183660932612554 85.27093570937875 H 0.0 **** 0.06
9104 H 142.88911423903318 44.84402655092154 85.7526101089638 H 0.0 **** 0.06
9105 H 144.17290432107353 43.66823259841382 85.38091223078452 H 0.0 **** 0.06
9106 C 33.188682502846746 142.64338472238808 86.58239806140357 C 0.0 **** -0.24
9107 H 34.19533181759277 142.45769346827387 86.20871632372497 H 0.0 **** 0.06
9108 H 33.21784650392851 143.44699800696782 87.31841116652858 H 0.0 **** 0.06
9109 H 32.80249128258254 141.7363137429033 87.0485479676788 H 0.0 **** 0.06
9110 H 32.54120675042884 142.93044827435858 85.75412769711524 H 0.0 **** 0.06
9111 C 66.0559272798868 59.841401831099745 190.9766985842248 C 0.0 **** -0.24
9112 H 65.23629227676538 59.5363418044917 191.62699695615083 H 0.0 **** 0.06
9113 H 66.31646832906632 59.01850870650702 190.31089199987755 H 0.0 **** 0.06
9114 H 66.92132932737906 60.10696191316276 191.58283244261986 H 0.0 **** 0.06
9115 H 65.74836853115326 60.70453767795718 190.38513262249606 H 0.0 **** 0.06
9116 C 186.8670707860789 190.12769844565506 64.53487910021838 C 0.0 **** -0.24
9117 H 187.41174012143702 190.8951078716772 63.98395783408748 H 0.0 **** 0.06
9118 H 186.97258261040292 189.17064238013074 64.02379683455035 H 0.0 **** 0.06
9119 H 185.81233186494245 190.39810450119882 64.58679743214287 H 0.0 **** 0.06
9120 H 187.27200959466407 190.04819487873846 65.54383394753461 H 0.0 **** 0.06
9121 C 178.88622248905682 171.90411536634682 172.764120903598 C 0.0 **** -0.24
9122 H 177.82435126369427 171.66333258599164 172.72572465684883 H 0.0 **** 0.06
9123 H 179.21442876001407 172.25961778916286 171.78710001468372 H 0.0 **** 0.06
9124 H 179.45066081841404 171.01111735342744 173.0341580721576 H 0.0 **** 0.06
9125 H 179.05678923475892 172.68034340082244 173.50951821094463 H 0.0 **** 0.06
9126 C 170.9776206271734 41.734754292576326 188.03810947886527 C 0.0 **** -0.24
9127 H 170.68173400248813 42.68928333515264 188.47236117363235 H 0.0 **** 0.06
9128 H 171.96388515985865 41.45683502100594 188.41165507218417 H 0.0 **** 0.06
9129 H 171.01190223866064 41.82438403480731 186.95219216039627 H 0.0 **** 0.06
9130 H 170.25424684522062 40.96878806836047 188.31675126206494 H 0.0 **** 0.06
9131 C 84.11466295889461 4.552495820036349 141.4928777261443 C 0.0 **** -0.24
9132 H 83.53346232312747 5.403143907586546 141.13692577894096 H 0.0 **** 0.06
9133 H 85.02673747241876 4.910759812647626 141.9710546215715 H 0.0 **** 0.06
9134 H 84.37450065724126 3.912876071277047 140.64934403656343 H 0.0 **** 0.06
9135 H 83.52518208805039 3.984959045993996 142.2120880072415 H 0.0 **** 0.06
9136 C 193.62194644426287 60.945436492838894 103.22271206666336 C 0.0 **** -0.24
9137 H 192.77365697215058 61.01369306279639 103.90401240738937 H 0.0 **** 0.06
9138 H 194.25066908452936 60.101725003911554 103.5090159591005 H 0.0 **** 0.06
9139 H 194.2028899842802 61.86623035536985 103.27357855872204 H 0.0 **** 0.06
9140 H 193.25877022453363 60.80016830043857 102.20511129559112 H 0.0 **** 0.06
9141 C 20.231396170157936 133.08253800476314 214.20768439369698 C 0.0 **** -0.24
9142 H 19.405508201528235 133.72890933935497 213.91046006781113 H 0.0 **** 0.06
9143 H 19.98109140479923 132.57798247148094 215.14028364082415 H 0.0 **** 0.06
9144 H 21.130417741064292 133.6839706108148 214.34885522065116 H 0.0 **** 0.06
9145 H 20.409971074802996 132.34075620501062 213.42916920209353 H 0.0 **** 0.06
9146 C 187.89717256537548 89.04732487065884 119.75163274186463 C 0.0 **** -0.24
9147 H 188.4042195176681 88.48440586181921 118.96856014073819 H 0.0 **** 0.06
9148 H 188.02292894714168 90.11488221979347 119.5721535823593 H 0.0 **** 0.06
9149 H 188.3245311823682 88.78840126039434 120.71975065477778 H 0.0 **** 0.06
9150 H 186.8356145389964 88.80058540516036 119.74603590168448 H 0.0 **** 0.06
9151 C 204.3783602290534 56.67580420397297 137.3302971944724 C 0.0 **** -0.24
9152 H 204.87256017353533 55.70612517513831 137.26259823302576 H 0.0 **** 0.06
9153 H 204.690177172382 57.179241260629695 138.24527831807234 H 0.0 **** 0.06
9154 H 203.2983649333222 56.532751191595 137.3438661100439 H 0.0 **** 0.06
9155 H 204.65433770014357 57.28446237615215 136.46818187067396 H 0.0 **** 0.06
9156 C 0.599542021266096 21.41380999149422 42.67597263862535 C 0.0 **** -0.24
9157 H 0.2491447782066487 22.442543712127716 42.590258893527675 H 0.0 **** 0.06
9158 H 0.6217827505273519 20.953479320102105 41.68817247646086 H 0.0 **** 0.06
9159 H -0.07406802319966488 20.853287423888787 43.32381913899519 H 0.0 **** 0.06
9160 H 1.6028662808290761 21.407268269749437 43.10297473286303 H 0.0 **** 0.06
9161 C 47.61195235663507 203.11160019843385 126.47942667023283 C 0.0 **** -0.24
9162 H 47.33625644820728 204.0743994854426 126.04985895055894 H 0.0 **** 0.06
9163 H 48.06880848507615 202.48848676232905 125.71020025987535 H 0.0 **** 0.06
9164 H 46.72053718323781 202.61813035577973 126.8664920873885 H 0.0 **** 0.06
9165 H 48.322239146814695 203.26637240498593 127.29100560035654 H 0.0 **** 0.06
9166 C 71.9992363004975 194.4648367643654 138.443970198103 C 0.0 **** -0.24
9167 H 72.92067177022642 194.39649226089495 139.0220937470931 H 0.0 **** 0.06
9168 H 72.21270563696856 194.91038044890357 137.47211485273095 H 0.0 **** 0.06
9169 H 71.27999642185017 195.08477710411836 138.9787571657347 H 0.0 **** 0.06
9170 H 71.5846796664843 193.46651256518896 138.3035218822476 H 0.0 **** 0.06
9171 C 152.86901623504122 81.22850038450008 112.65947937904902 C 0.0 **** -0.24
9172 H 152.56464890127728 82.27362198035138 112.72435256342006 H 0.0 **** 0.06
9173 H 153.64242809295934 81.1236640701602 111.89807567845914 H 0.0 **** 0.06
9174 H 152.0089442387357 80.61592612843214 112.39205078803734 H 0.0 **** 0.06
9175 H 153.261150071815 80.90499965470565 113.62321557396932 H 0.0 **** 0.06
9176 C 150.0152308249602 142.89390273952205 130.64868453943632 C 0.0 **** -0.24
9177 H 150.28843706871243 143.7059978469058 131.32260517653089 H 0.0 **** 0.06
9178 H 149.50863138294392 143.3039273181821 129.77397543520982 H 0.0 **** 0.06
9179 H 149.34791433500118 142.20400736650282 131.16483878581232 H 0.0 **** 0.06
9180 H 150.91374715232047 142.36434914314083 130.33355676044977 H 0.0 **** 0.06
9181 C 42.99741117752569 105.24685020596985 117.6245472356997 C 0.0 **** -0.24
9182 H 42.2018482732779 104.77732984554694 118.20390847784468 H 0.0 **** 0.06
9183 H 42.5973859437039 106.10870248177037 117.09065623617799 H 0.0 **** 0.06
9184 H 43.3982440512529 104.5285740349969 116.90869983446747 H 0.0 **** 0.06
9185 H 43.79214577504047 105.57216715785631 118.2957029056367 H 0.0 **** 0.06
9186 C 85.36135584340131 128.92050554409457 155.16691838820196 C 0.0 **** -0.24
9187 H 84.49698551421871 128.25630197410044 155.15497292442933 H 0.0 **** 0.06
9188 H 85.24425577210242 129.65468355029708 155.96344544337546 H 0.0 **** 0.06
9189 H 85.43878055568443 129.4332885994325 154.2077051144787 H 0.0 **** 0.06
9190 H 86.26558232666274 128.33646910420788 155.33972477903188 H 0.0 **** 0.06
9191 C 119.6705386784116 48.55624338602266 121.12145323859393 C 0.0 **** -0.24
9192 H 120.68328322627274 48.473811418202516 120.7286497698636 H 0.0 **** 0.06
9193 H 119.7109437130283 48.70249919193431 122.20196184572585 H 0.0 **** 0.06
9194 H 119.11943235834046 47.642779720602746 120.89926169411517 H 0.0 **** 0.06
9195 H 119.1690504858753 49.4051018103322 120.6579598900784 H 0.0 **** 0.06
9196 C 73.87536687073873 200.78609812232415 216.4803659080656 C 0.0 **** -0.24
9197 H 73.88831835470432 199.81599555524656 215.9844733901013 H 0.0 **** 0.06
9198 H 74.30642340986321 200.68943477324072 217.47759588125263 H 0.0 **** 0.06
9199 H 72.84743845911242 201.13965551793913 216.5612515470158 H 0.0 **** 0.06
9200 H 74.46060352157076 201.49897351028005 215.89961133152693 H 0.0 **** 0.06
9201 C 162.8473141723844 44.172652130236344 164.03747538569775 C 0.0 **** -0.24
9202 H 162.213739307016 44.552891405749406 163.23625187284685 H 0.0 **** 0.06
9203 H 163.82966127756657 44.64084999578533 163.9773666871033 H 0.0 **** 0.06
9204 H 162.95264245602505 43.092343651440004 163.93428773175089 H 0.0 **** 0.06
9205 H 162.39208148053834 44.40331429662692 165.00049319112486 H 0.0 **** 0.06
9206 C 151.97240165552444 122.32914250958724 60.43798960887091 C 0.0 **** -0.24
9207 H 151.5748109276944 121.8510432525879 59.54293159684062 H 0.0 **** 0.06
9208 H 151.91895649232413 123.4128094443118 60.32586577596547 H 0.0 **** 0.06
9209 H 153.01109913929525 122.02885127436524 60.57937512474277 H 0.0 **** 0.06
9210 H 151.3861318877506 122.02451754572128 61.30458496840623 H 0.0 **** 0.06
9211 C 72.25333728819332 173.18623980303687 118.37531532783434 C 0.0 **** -0.24
9212 H 73.19835426539989 172.78241522481326 118.01135685787015 H 0.0 **** 0.06
9213 H 72.4455367611278 173.87417333510678 119.1982691197292 H 0.0 **** 0.06
9214 H 71.62005167193068 172.37031917816483 118.7237475309302 H 0.0 **** 0.06
9215 H 71.74992905204327 173.7172198976171 117.56687025372916 H 0.0 **** 0.06
9216 C 26.680858350898234 72.6223297334272 83.38702778486028 C 0.0 **** -0.24
9217 H 27.751380535063305 72.78038921225033 83.2559797316883 H 0.0 **** 0.06
9218 H 26.30171303663434 73.3134651491032 84.14003961103283 H 0.0 **** 0.06
9219 H 26.502551094861985 71.59656747420684 83.71097293539874 H 0.0 **** 0.06
9220 H 26.169397421994972 72.79825540883024 82.44113931516445 H 0.0 **** 0.06
9221 C 194.25749756842004 75.48617743325612 154.6818775982294 C 0.0 **** -0.24
9222 H 193.70655143365605 75.52807222103571 155.621224346061 H 0.0 **** 0.06
9223 H 194.88367453511538 76.37357706917702 154.58823768524132 H 0.0 **** 0.06
9224 H 193.55552725725914 75.44648201873365 153.8502171763671 H 0.0 **** 0.06
9225 H 194.88683768044203 74.59533232643575 154.6699954796091 H 0.0 **** 0.06
9226 C 32.252986631656825 28.199174345943078 73.04346585560477 C 0.0 **** -0.24
9227 H 32.46977291240387 29.26705926107269 73.06525229371898 H 0.0 **** 0.06
9228 H 32.60690762399224 27.775666776812102 72.10317525267108 H 0.0 **** 0.06
9229 H 31.17832064433543 28.043927024487743 73.13142833935844 H 0.0 **** 0.06
9230 H 32.760276949154644 27.709428302602078 73.87559535840212 H 0.0 **** 0.06
9231 C 94.9613553606399 5.531965073233891 206.42856876692787 C 0.0 **** -0.24
9232 H 95.47031716188535 4.840020251225468 205.75731666076598 H 0.0 **** 0.06
9233 H 95.44956868008192 6.5060056644527435 206.3845365737978 H 0.0 **** 0.06
9234 H 95.00624215059322 5.148066029021322 207.44779584591674 H 0.0 **** 0.06
9235 H 93.92001416635811 5.633947139200757 206.12342239443495 H 0.0 **** 0.06
9236 C 44.60036187783703 166.9470994671457 130.74532911258092 C 0.0 **** -0.24
9237 H 45.544192086563854 167.24252153025398 130.2864179138425 H 0.0 **** 0.06
9238 H 43.77607473915887 167.21436388145636 130.08399290086135 H 0.0 **** 0.06
9239 H 44.48332502926536 167.46154904510246 131.69928830951784 H 0.0 **** 0.06
9240 H 44.59885490148811 165.86993778688972 130.91164681319202 H 0.0 **** 0.06
9241 C 167.15518847855742 5.668195811811529 128.83030805568006 C 0.0 **** -0.24
9242 H 166.52832289085381 6.115757674547638 128.05932488880882 H 0.0 **** 0.06
9243 H 166.7224132730875 4.7182702506013925 129.1444357211173 H 0.0 **** 0.06
9244 H 167.2136788117054 6.341799268461898 129.68651914959787 H 0.0 **** 0.06
9245 H 168.15552901197577 5.498889486474468 128.43221972719363 H 0.0 **** 0.06
9246 C 44.027931039327655 46.769476608589486 22.353733524312062 C 0.0 **** -0.24
9247 H 43.34520734818028 47.60513067114928 22.505311141772523 H 0.0 **** 0.06
9248 H 44.98779867150665 47.1442185850907 21.998503015919297 H 0.0 **** 0.06
9249 H 43.60799447650709 46.08672671828265 21.614715245580115 H 0.0 **** 0.06
9250 H 44.170571785796085 46.24085929162476 23.296588495887917 H 0.0 **** 0.06
9251 C 14.571182022611495 14.10248758935164 173.85272071463237 C 0.0 **** -0.24
9252 H 13.790197100763038 14.331747470208455 173.1287617583995 H 0.0 **** 0.06
9253 H 14.63024613331281 13.023828579173212 173.9963149309317 H 0.0 **** 0.06
9254 H 14.337696206334655 14.583745133092862 174.80266634146898 H 0.0 **** 0.06
9255 H 15.52772476983759 14.472544983082642 173.4841591474136 H 0.0 **** 0.06
9256 C 7.970389100482123 184.78458817709355 186.5133163036816 C 0.0 **** -0.24
9257 H 8.716033499123455 185.57546655065318 186.5950228914163 H 0.0 **** 0.06
9258 H 8.187739944599826 184.00468114072928 187.24288381675643 H 0.0 **** 0.06
9259 H 7.999492057264746 184.3615433325383 185.50891587403527 H 0.0 **** 0.06
9260 H 6.980447268379464 185.19667063714184 186.70528069404725 H 0.0 **** 0.06
9261 C 109.28282677899098 61.29384712733315 103.5482573859609 C 0.0 **** -0.24
9262 H 109.02250985718588 62.14394763056521 104.17862423639723 H 0.0 **** 0.06
9263 H 109.27280415140437 60.382020504454374 104.14537872460302 H 0.0 **** 0.06
9264 H 110.2773174838466 61.44366746265132 103.12798575776715 H 0.0 **** 0.06
9265 H 108.55615612003588 61.20727779625901 102.73988887081823 H 0.0 **** 0.06
9266 C 170.95046511717825 21.395010076845722 91.75760656344606 C 0.0 **** -0.24
9267 H 171.9110861332467 21.893460803785672 91.88733039503076 H 0.0 **** 0.06
9268 H 170.31876010418875 21.990406601509335 91.09747785459673 H 0.0 **** 0.06
9269 H 170.46296091582684 21.28791725428937 92.72793380778138 H 0.0 **** 0.06
9270 H 171.10856429024062 20.41022378353884 91.320110606386 H 0.0 **** 0.06
9271 C 22.201886911663863 135.86531693651023 50.37509365479542 C 0.0 **** -0.24
9272 H 21.705016850914404 135.48621771498938 49.48214625597029 H 0.0 **** 0.06
9273 H 22.392057742958684 135.0401438174187 51.06217555165287 H 0.0 **** 0.06
9274 H 21.563779247185423 136.60354605254082 50.85990857030231 H 0.0 **** 0.06
9275 H 23.146498488502303 136.33050115451135 50.094348683759904 H 0.0 **** 0.06
9276 C 43.20274805684346 203.71460538302574 22.976212013609313 C 0.0 **** -0.24
9277 H 42.251904676120716 204.15939436203243 23.27002278418678 H 0.0 **** 0.06
9278 H 44.00229536464684 204.44298329879246 23.113685143167288 H 0.0 **** 0.06
9279 H 43.15705548353259 203.4174385931658 21.928984623259623 H 0.0 **** 0.06
9280 H 43.40033763095937 202.8378082454098 23.594156430931662 H 0.0 **** 0.06
9281 C 45.518212008719956 170.92293192356553 158.3349675607085 C 0.0 **** -0.24
9282 H 45.52469742674265 171.77598824844716 159.01428560222985 H 0.0 **** 0.06
9283 H 45.99547320711656 171.20244532128942 157.39587483868826 H 0.0 **** 0.06
9284 H 44.48857223171609 170.6192739433379 158.14447108650637 H 0.0 **** 0.06
9285 H 46.062755479927944 170.09454302709383 158.7876687578651 H 0.0 **** 0.06
9286 C 78.88877432211832 129.01612542450732 66.73528615065092 C 0.0 **** -0.24
9287 H 78.70951589575047 129.73679293399567 65.9384556381024 H 0.0 **** 0.06
9288 H 79.58750879745044 129.44002139298243 67.45744437434992 H 0.0 **** 0.06
9289 H 79.31089135806327 128.1047710331802 66.31230682425958 H 0.0 **** 0.06
9290 H 77.94745012924587 128.7834016447568 67.2342386149211 H 0.0 **** 0.06
9291 C 129.43363346076887 17.071730764970084 161.69375953895454 C 0.0 **** -0.24
9292 H 130.2079513736703 16.324566259444637 161.51841098312997 H 0.0 **** 0.06
9293 H 129.02593701775947 16.942744022064204 162.69675813317784 H 0.0 **** 0.06
9294 H 128.6372747866689 16.947916894764205 160.958602306727 H 0.0 **** 0.06
9295 H 129.8627440966842 18.068470619615738 161.59978170595045 H 0.0 **** 0.06
9296 C 31.719949482781843 200.7199454716275 109.8960713596626 C 0.0 **** -0.24
9297 H 32.79885998548423 200.57375042267518 109.95463144976476 H 0.0 **** 0.06
9298 H 31.50881694066699 201.67432615933927 109.41379997590273 H 0.0 **** 0.06
9299 H 31.29863967015443 200.71852051510416 110.90077535992397 H 0.0 **** 0.06
9300 H 31.27559947812638 199.9129435497466 109.31440385151863 H 0.0 **** 0.06
9301 C 44.198597211603555 68.52385856526439 119.39536240282091 C 0.0 **** -0.24
9302 H 45.21988848915396 68.7098252858438 119.72683733641834 H 0.0 **** 0.06
9303 H 43.80944289606026 67.63847216257557 119.89719101668199 H 0.0 **** 0.06
9304 H 44.19071560678111 68.36358619810602 118.31668367143708 H 0.0 **** 0.06
9305 H 43.57526138370639 69.38414271405617 119.63984097203472 H 0.0 **** 0.06
9306 C 72.72897408501626 100.23844521996358 178.3410650026476 C 0.0 **** -0.24
9307 H 72.8002488162835 101.3243917185087 178.28430019998035 H 0.0 **** 0.06
9308 H 72.46331778977674 99.94517097937728 179.3573105980683 H 0.0 **** 0.06
9309 H 73.68922618619195 99.79699080801623 178.07511757532438 H 0.0 **** 0.06
9310 H 71.96308398213444 99.88760472294837 177.6499518286587 H 0.0 **** 0.06
9311 C 50.150496101779595 191.88775951518045 198.69298420703822 C 0.0 **** -0.24
9312 H 50.114484219961156 191.450382388446 199.69020911259034 H 0.0 **** 0.06
9313 H 49.70439238623595 192.8829626151355 198.7172418673348 H 0.0 **** 0.06
9314 H 49.59546789615581 191.25711534319692 197.99869482144757 H 0.0 **** 0.06
9315 H 51.18774895184947 191.96250946734813 198.36691197381765 H 0.0 **** 0.06
9316 C 175.26479755467014 195.6822919684483 98.3931302381067 C 0.0 **** -0.24
9317 H 175.2779913916952 195.33674616430204 99.42679079909176 H 0.0 **** 0.06
9318 H 174.5429148860197 195.09558495405815 97.82394973156356 H 0.0 **** 0.06
9319 H 176.25738365625045 195.5610891442767 97.95742062022056 H 0.0 **** 0.06
9320 H 174.98136149823108 196.73404408252617 98.36573288459415 H 0.0 **** 0.06
9321 C 63.21981471845315 4.206519549666787 93.07088274895459 C 0.0 **** -0.24
9322 H 62.64416732319533 4.721698322006667 93.83882872277375 H 0.0 **** 0.06
9323 H 62.776540820419726 4.4006157034606375 92.09423282728348 H 0.0 **** 0.06
9324 H 63.21124118235058 3.1344045326496826 93.26727526649408 H 0.0 **** 0.06
9325 H 64.2471508267235 4.570093353790654 93.08253350579672 H 0.0 **** 0.06
9326 C 75.94960727623783 174.4642280236081 146.3423608845842 C 0.0 **** -0.24
9327 H 76.98298670377784 174.41885541608355 145.99816264664958 H 0.0 **** 0.06
9328 H 75.92644523690319 174.8101614930107 147.37629884719234 H 0.0 **** 0.06
9329 H 75.50275510625642 173.47177680357896 146.28166612043077 H 0.0 **** 0.06
9330 H 75.386949251533 175.1545460533212 145.71473991330362 H 0.0 **** 0.06
9331 C 132.93559682094946 69.84155243924165 49.448682125153866 C 0.0 **** -0.24
9332 H 132.87310784567563 68.82937121602343 49.84696144676478 H 0.0 **** 0.06
9333 H 132.52708801633497 69.85881357804412 48.43733264127185 H 0.0 **** 0.06
9334 H 133.9774144595732 70.15988863597086 49.42559108785308 H 0.0 **** 0.06
9335 H 132.36240201296613 70.51759840016872 50.08309106806293 H 0.0 **** 0.06
9336 C 200.90291418853388 80.6831213591795 104.07317334283714 C 0.0 **** -0.24
9337 H 201.73106221246388 81.38121274998235 103.95789815389172 H 0.0 **** 0.06
9338 H 200.38691868883444 80.57152766076842 103.11948543292927 H 0.0 **** 0.06
9339 H 200.20732281604074 81.06378662948208 104.82069974489987 H 0.0 **** 0.06
9340 H 201.28592026173487 79.71384826204121 104.39344378919706 H 0.0 **** 0.06
9341 C 145.6385661164673 34.247763423173495 106.88412787095181 C 0.0 **** -0.24
9342 H 146.47949620298039 33.57032026736141 107.03221397948055 H 0.0 **** 0.06
9343 H 144.74731667787586 33.67163295802274 106.633085480399 H 0.0 **** 0.06
9344 H 145.86663344620843 34.93662395077571 106.06978050622341 H 0.0 **** 0.06
9345 H 145.46103806934116 34.81309109006226 107.7985033642798 H 0.0 **** 0.06
9346 C 84.45339433947521 110.20523128883558 101.81867702355508 C 0.0 **** -0.24
9347 H 85.38426044365269 109.67365674885109 102.0175009402928 H 0.0 **** 0.06
9348 H 84.33168378867333 111.007083706036 102.54785423306204 H 0.0 **** 0.06
9349 H 83.61656560725424 109.51264970000177 101.89583604866921 H 0.0 **** 0.06
9350 H 84.48444438694128 110.62877222010356 100.81454948206506 H 0.0 **** 0.06
9351 C 178.2072514227031 197.2802787105359 145.20600844777567 C 0.0 **** -0.24
9352 H 177.4989782854484 196.68946497104966 144.6245504210467 H 0.0 **** 0.06
9353 H 178.1125570879181 197.0246286115971 146.26198106511026 H 0.0 **** 0.06
9354 H 177.99445997756894 198.3405942488009 145.06818281752277 H 0.0 **** 0.06
9355 H 179.2216168653647 197.06625211448383 144.86915313239058 H 0.0 **** 0.06
9356 C 177.09176271138722 72.99458078485493 21.298469164717886 C 0.0 **** -0.24
9357 H 176.32918180055185 72.6971980045683 20.57828933860671 H 0.0 **** 0.06
9358 H 177.35949913279165 74.03950312535848 21.1329134461118 H 0.0 **** 0.06
9359 H 177.97461512038174 72.36857101415198 21.1728128449772 H 0.0 **** 0.06
9360 H 176.7020714929755 72.87552468187648 22.310079048560226 H 0.0 **** 0.06
9361 C 214.9126802311048 129.76000860242573 34.37075695855995 C 0.0 **** -0.24
9362 H 215.90697970842064 129.93673667266296 33.96071809033174 H 0.0 **** 0.06
9363 H 214.891872320047 130.06644045205024 35.416766373072136 H 0.0 **** 0.06
9364 H 214.6726247202571 128.6984504357941 34.29769686555616 H 0.0 **** 0.06
9365 H 214.17966090466945 130.33749780939365 33.80784576448917 H 0.0 **** 0.06
9366 C 63.83923409745013 140.33803479856084 54.913179395637286 C 0.0 **** -0.24
9367 H 64.59218632776937 141.0525261318171 54.5820084527939 H 0.0 **** 0.06
9368 H 63.40853794328291 140.67422707415489 55.85729471876937 H 0.0 **** 0.06
9369 H 64.30272160600066 139.36091100611276 55.05266981235144 H 0.0 **** 0.06
9370 H 63.05277709295011 140.26351826684146 54.16150338838935 H 0.0 **** 0.06
9371 C 161.87468404668255 134.88922599250407 138.0644779280513 C 0.0 **** -0.24
9372 H 160.89266893711903 135.19584468746154 138.42407274161707 H 0.0 **** 0.06
9373 H 161.84022712987087 133.84264948531495 137.76077497607855 H 0.0 **** 0.06
9374 H 162.60797679635078 135.01221461305693 138.8622960153628 H 0.0 **** 0.06
9375 H 162.1577464570331 135.5063420698167 137.21175021324018 H 0.0 **** 0.06
9376 C 43.74628801731798 68.81035220013246 52.53828066034907 C 0.0 **** -0.24
9377 H 42.9585630918929 68.94020423340518 53.280335258430114 H 0.0 **** 0.06
9378 H 43.3091711670281 68.82009709042859 51.53974371294376 H 0.0 **** 0.06
9379 H 44.24958461470865 67.85911461848048 52.70573424419558 H 0.0 **** 0.06
9380 H 44.46610703734167 69.623407813896 52.62744493482228 H 0.0 **** 0.06
9381 C 163.73800735992342 69.56612843171672 25.61084420638838 C 0.0 **** -0.24
9382 H 164.82468444560283 69.6284272702369 25.669741615355903 H 0.0 **** 0.06
9383 H 163.42892453589218 69.58598901295716 24.56540290485981 H 0.0 **** 0.06
9384 H 163.29639693611813 70.41229036040517 26.13703557560339 H 0.0 **** 0.06
9385 H 163.40215400974893 68.63698262587513 26.070646039326775 H 0.0 **** 0.06
9386 C 190.5748241160643 176.29556665869802 145.59129494638216 C 0.0 **** -0.24
9387 H 190.08949135376798 175.6551937154478 146.3287057966209 H 0.0 **** 0.06
9388 H 190.2918251680821 175.97336730296803 144.5881213104621 H 0.0 **** 0.06
9389 H 191.65680154272448 176.22511649914708 145.70488969683203 H 0.0 **** 0.06
9390 H 190.2599631096076 177.3279603247846 145.7438203665509 H 0.0 **** 0.06
9391 C 146.77620563185093 112.9447359430721 164.79551164769524 C 0.0 **** -0.24
9392 H 147.3659085601954 112.07636534380207 165.09053047422827 H 0.0 **** 0.06
9393 H 146.4383815006533 112.8215596890441 163.76605372234226 H 0.0 **** 0.06
9394 H 147.38893360050542 113.84347735753438 164.8718166811614 H 0.0 **** 0.06
9395 H 145.91217144059397 113.03677091296139 165.45336544007003 H 0.0 **** 0.06
9396 C 7.502926277641947 96.78431104054154 130.28470868204994 C 0.0 **** -0.24
9397 H 6.911681736997323 95.87272168757521 130.19759449116958 H 0.0 **** 0.06
9398 H 8.509875042854887 96.60056986011939 129.9089288085582 H 0.0 **** 0.06
9399 H 7.555396030973384 97.08477491359143 131.331628707214 H 0.0 **** 0.06
9400 H 7.03525057205411 97.57756887916004 129.70176137095638 H 0.0 **** 0.06
9401 C 32.96983656819535 164.38780127720264 163.81350174634332 C 0.0 **** -0.24
9402 H 31.948043092681104 164.76335086482248 163.86760106244267 H 0.0 **** 0.06
9403 H 32.991833024439174 163.34696734013616 164.13638718662213 H 0.0 **** 0.06
9404 H 33.60939732756111 164.98384697500592 164.46470425129706 H 0.0 **** 0.06
9405 H 33.32986413898752 164.4586435249364 162.786858833799 H 0.0 **** 0.06
9406 C 201.30588051235296 177.67253255531995 187.67158161138556 C 0.0 **** -0.24
9407 H 201.59700619994413 177.802263032466 188.7134611423032 H 0.0 **** 0.06
9408 H 200.21978153141959 177.59445714073445 187.6047728922106 H 0.0 **** 0.06
9409 H 201.7602269274487 176.76282091104224 187.2781846016346 H 0.0 **** 0.06
9410 H 201.64569358108483 178.52944636258354 187.0897294431407 H 0.0 **** 0.06
9411 C 171.93509021197855 151.9045896169161 116.61741709524883 C 0.0 **** -0.24
9412 H 172.16824186685923 151.7469303501884 117.6696171561923 H 0.0 **** 0.06
9413 H 171.56421828230654 150.97515824753316 116.18454241436719 H 0.0 **** 0.06
9414 H 172.83591851801214 152.21702273501052 116.08867892181284 H 0.0 **** 0.06
9415 H 171.17238553715384 152.67787276570408 116.52543400874971 H 0.0 **** 0.06
9416 C 12.919225873572088 172.45524366597468 89.64348376030621 C 0.0 **** -0.24
9417 H 12.446790017729768 171.47479449035887 89.57344852287908 H 0.0 **** 0.06
9418 H 13.22243960664116 172.78290276346576 88.6485354684185 H 0.0 **** 0.06
9419 H 13.795538396108327 172.39005892288685 90.28702507097144 H 0.0 **** 0.06
9420 H 12.211631885500339 173.1701603706185 90.06282965857191 H 0.0 **** 0.06
9421 C 198.37178413599764 61.03700202173658 38.724520096625184 C 0.0 **** -0.24
9422 H 197.42549689463328 60.613211861228265 38.38873967979629 H 0.0 **** 0.06
9423 H 198.24077372429605 62.10078751230628 38.92801425996555 H 0.0 **** 0.06
9424 H 199.1248622015937 60.905424014669904 37.94803649772862 H 0.0 **** 0.06
9425 H 198.6945185257471 60.52992548658537 39.634288227746254 H 0.0 **** 0.06
9426 C 191.14730181419066 202.98733862352694 207.3754378321278 C 0.0 **** -0.24
9427 H 190.33330861736374 202.39263110677697 206.96015817677102 H 0.0 **** 0.06
9428 H 190.74780806813934 203.68274530475782 208.11357970883768 H 0.0 **** 0.06
9429 H 191.6323340261297 203.54608206267812 206.574842013777 H 0.0 **** 0.06
9430 H 191.87228965183684 202.32830629724222 207.8509776626099 H 0.0 **** 0.06
9431 C 58.755055191201734 106.32818427672915 128.11224664051144 C 0.0 **** -0.24
9432 H 59.149639127215664 107.29225212904662 127.79305733675905 H 0.0 **** 0.06
9433 H 57.80142286935565 106.47458085896226 128.61967897691522 H 0.0 **** 0.06
9434 H 59.46122467978603 105.85446268731955 128.79500477130483 H 0.0 **** 0.06
9435 H 58.60873379668796 105.6891433468269 127.24096374162859 H 0.0 **** 0.06
9436 C 191.4388705263707 110.57315909254794 12.65316753588695 C 0.0 **** -0.24
9437 H 192.29876169305925 109.99382920411381 12.991204839838446 H 0.0 **** 0.06
9438 H 191.57143586792716 111.61778716091646 12.93641968816226 H 0.0 **** 0.06
9439 H 190.53385406542975 110.18246275569277 13.118429521816296 H 0.0 **** 0.06
9440 H 191.35357491377994 110.49734098776275 11.569430759698093 H 0.0 **** 0.06
9441 C 82.28036026852772 207.27500781767415 129.7169258967986 C 0.0 **** -0.24
9442 H 81.96721529415669 208.31490934596667 129.6193646960137 H 0.0 **** 0.06
9443 H 82.39439750138405 207.0285869533655 130.77335073176278 H 0.0 **** 0.06
9444 H 83.23117493513081 207.132787125525 129.2055377447877 H 0.0 **** 0.06
9445 H 81.5272820183248 206.62550069515385 129.2716970023095 H 0.0 **** 0.06
9446 C 200.7561231858429 78.39100317929837 88.87039409788713 C 0.0 **** -0.24
9447 H 200.07137112908765 77.82195600977235 88.24195868490051 H 0.0 **** 0.06
9448 H 201.73899532589328 78.42277918539776 88.39811154238265 H 0.0 **** 0.06
9449 H 200.83642953732917 77.91192459823435 89.84591689689923 H 0.0 **** 0.06
9450 H 200.37900893472067 79.40628247345836 88.99240610377144 H 0.0 **** 0.06
9451 C 27.582104224953227 100.47491713764124 27.04966270089554 C 0.0 **** -0.24
9452 H 27.347451791536443 101.5374377439024 27.104300734249136 H 0.0 **** 0.06
9453 H 27.842360315543587 100.10978339842138 28.043076136211425 H 0.0 **** 0.06
9454 H 28.4236627619659 100.32310425307755 26.37323589354463 H 0.0 **** 0.06
9455 H 26.713877058977886 99.93024532690204 26.67781010287331 H 0.0 **** 0.06
9456 C 61.896920631006935 66.37540354845757 37.66454779328164 C 0.0 **** -0.24
9457 H 61.82080064080117 65.36802548472224 37.25525532958288 H 0.0 **** 0.06
9458 H 62.68938923329259 66.91826270013314 37.14817524025234 H 0.0 **** 0.06
9459 H 62.1277195334648 66.31866695021506 38.7281454405821 H 0.0 **** 0.06
9460 H 60.949066063936854 66.89606708437302 37.52554293281797 H 0.0 **** 0.06
9461 C 216.66622353297961 188.9600481113936 8.913703779859006 C 0.0 **** -0.24
9462 H 217.07097456272743 188.73318601656644 9.90022257714682 H 0.0 **** 0.06
9463 H 215.65644401348246 189.35698953955063 9.018474781722546 H 0.0 **** 0.06
9464 H 216.63922700462317 188.0490754257709 8.314945809337729 H 0.0 **** 0.06
9465 H 217.29940636459634 189.69925759457652 8.422522563826035 H 0.0 **** 0.06
9466 C 35.25695377887115 146.35614533265465 181.38729460269178 C 0.0 **** -0.24
9467 H 35.65958764942235 147.17519777565593 180.79158897582894 H 0.0 **** 0.06
9468 H 35.45308790284676 145.4103844440806 180.8829367235317 H 0.0 **** 0.06
9469 H 34.181740211349876 146.48869759459814 181.5064617732573 H 0.0 **** 0.06
9470 H 35.73361865734174 146.35251553782513 182.36796711127843 H 0.0 **** 0.06
9471 C 85.3527568285191 87.04885828769096 5.675136327398221 C 0.0 **** -0.24
9472 H 84.94899861180242 87.11614278409371 4.664103062205193 H 0.0 **** 0.06
9473 H 84.6947295262968 87.57672422302397 6.365060056964452 H 0.0 **** 0.06
9474 H 86.34404991256436 87.50194679612616 5.699914736349655 H 0.0 **** 0.06
9475 H 85.4240912714376 86.00175854295816 5.968004291714607 H 0.0 **** 0.06
9476 C 26.078168768601586 118.20330823133888 182.5790570841806 C 0.0 **** -0.24
9477 H 25.759396428161097 117.23588371056108 182.96560476379187 H 0.0 **** 0.06
9478 H 26.476410848541093 118.80623015239094 183.39473994441767 H 0.0 **** 0.06
9479 H 25.226457441597404 118.71429892814116 182.13128879415717 H 0.0 **** 0.06
9480 H 26.851645681472718 118.05632595308263 181.8241154700894 H 0.0 **** 0.06
9481 C 114.80888333925175 123.39816720596353 162.16028785099 C 0.0 **** -0.24
9482 H 115.09838487421258 124.43696609789619 162.00162197624277 H 0.0 **** 0.06
9483 H 114.64604702611315 122.91592707783501 161.19537854705482 H 0.0 **** 0.06
9484 H 113.8898477876309 123.36270672184814 162.74456717751863 H 0.0 **** 0.06
9485 H 115.60221312495544 122.8780172350025 162.6969040935707 H 0.0 **** 0.06
9486 C 69.82619952696695 194.85950789196175 64.86535405023471 C 0.0 **** -0.24
9487 H 70.05776026446847 194.2208892510602 65.71886387679166 H 0.0 **** 0.06
9488 H 69.67003867687845 195.8825625591208 65.21009033136048 H 0.0 **** 0.06
9489 H 68.92074294707209 194.49797978295905 64.37826993024377 H 0.0 **** 0.06
9490 H 70.65427884383496 194.83549567900718 64.1582994813874 H 0.0 **** 0.06
9491 C 24.368218704656158 167.5404850244082 99.60159127700115 C 0.0 **** -0.24
9492 H 23.675064809734323 167.7253043937971 98.78042525882347 H 0.0 **** 0.06
9493 H 23.90237810757651 166.86943119982192 100.32392531051369 H 0.0 **** 0.06
9494 H 24.615579002498635 168.4838164892518 100.08743564535507 H 0.0 **** 0.06
9495 H 25.277447154545257 167.08190633640737 99.21233897275647 H 0.0 **** 0.06
9496 C 23.307569707858818 73.28311449212434 104.17146371473434 C 0.0 **** -0.24
9497 H 23.61808125975095 73.29052561002719 105.21564749449958 H 0.0 **** 0.06
9498 H 23.155047458863123 72.25442869762496 103.84511783382335 H 0.0 **** 0.06
9499 H 24.080426291967 73.74811434167331 103.55922113081179 H 0.0 **** 0.06
9500 H 22.37705023237126 73.84033041110173 104.06577997780211 H 0.0 **** 0.06
9501 C 70.79391631667214 201.77145383982776 66.72058528882576 C 0.0 **** -0.24
9502 H 71.34142263508438 202.5762360992677 66.22934655472795 H 0.0 **** 0.06
9503 H 69.83879357061186 201.6216069849258 66.21639027630084 H 0.0 **** 0.06
9504 H 70.61732653718063 202.03519638605752 67.76306216894017 H 0.0 **** 0.06
9505 H 71.37822566005526 200.85279366195428 66.67130851888567 H 0.0 **** 0.06
9506 C 215.4574543786924 147.43895959509604 189.3045386196612 C 0.0 **** -0.24
9507 H 214.46620174471224 147.54540757742103 189.74582445510256 H 0.0 **** 0.06
9508 H 215.37159845032159 147.42970840611707 188.2174023207554 H 0.0 **** 0.06
9509 H 215.9071940627416 146.50584211124152 189.64205320309273 H 0.0 **** 0.06
9510 H 216.08335966330395 148.2767672535877 189.61232920433014 H 0.0 **** 0.06
9511 C 22.539712361210377 67.62621616859612 170.47593144654695 C 0.0 **** -0.24
9512 H 21.940514392409796 66.91092552838862 171.03922198323193 H 0.0 **** 0.06
9513 H 22.089726052346748 67.78445871891499 169.49568211137893 H 0.0 **** 0.06
9514 H 23.55009635940101 67.23735638507608 170.35420486223657 H 0.0 **** 0.06
9515 H 22.576828202809196 68.5725795629831 171.01559419185236 H 0.0 **** 0.06
9516 C 31.465081288637805 24.422641446363514 200.21932199007557 C 0.0 **** -0.24
9517 H 32.490642800269256 24.481290971678817 199.8521817062604 H 0.0 **** 0.06
9518 H 31.305424343949937 25.194435763160584 200.97289238816154 H 0.0 **** 0.06
9519 H 31.292317414284668 23.44151636805566 200.66015681042757 H 0.0 **** 0.06
9520 H 30.773647796233945 24.575719020614088 199.38974550429958 H 0.0 **** 0.06
9521 C 143.72398375608435 105.45966830142184 131.88899248104923 C 0.0 **** -0.24
9522 H 144.0931277373876 104.53721303642213 132.33816745380778 H 0.0 **** 0.06
9523 H 142.91855359281385 105.8639057383598 132.5025016418566 H 0.0 **** 0.06
9524 H 143.34918386029 105.2499651332714 130.8878517652493 H 0.0 **** 0.06
9525 H 144.5352727373836 106.18450416903558 131.83017690122136 H 0.0 **** 0.06
9526 C 201.51190376056348 42.591854466252244 148.93498221060412 C 0.0 **** -0.24
9527 H 200.9424100822725 42.368623921117546 148.03205572783497 H 0.0 **** 0.06
9528 H 201.29227600143807 43.609343842180934 149.2595375475583 H 0.0 **** 0.06
9529 H 202.57733864160582 42.49816710362295 148.72427309164982 H 0.0 **** 0.06
9530 H 201.23274734071117 41.89056663141915 149.72173770823298 H 0.0 **** 0.06
9531 C 188.49295023082755 0.988280370898913 74.57194895160302 C 0.0 **** -0.24
9532 H 188.87998269955284 0.7681191745837737 73.5769614867537 H 0.0 **** 0.06
9533 H 187.4750120089851 0.6078907642834679 74.65761494582779 H 0.0 **** 0.06
9534 H 188.49448720726375 2.066734056663492 74.73185339505602 H 0.0 **** 0.06
9535 H 189.12455203655884 0.5094146307403733 75.32107171915118 H 0.0 **** 0.06
9536 C 24.511110214853147 213.31077929889935 155.97295742755477 C 0.0 **** -0.24
9537 H 24.23528803586413 213.57367081894398 156.99347067396116 H 0.0 **** 0.06
9538 H 24.521549816858965 212.2251895084379 155.86743024554806 H 0.0 **** 0.06
9539 H 25.501556428296396 213.70733826810755 155.74972790800894 H 0.0 **** 0.06
9540 H 23.78397546475935 213.73529903789645 155.2797560093157 H 0.0 **** 0.06
9541 C 91.25586368002195 63.484600794166155 38.88532767877453 C 0.0 **** -0.24
9542 H 90.95726773925878 63.611419879245815 39.92683550511137 H 0.0 **** 0.06
9543 H 90.91723933849909 62.51341441064213 38.52605663787291 H 0.0 **** 0.06
9544 H 92.3416399770623 63.54186740089577 38.810144563734525 H 0.0 **** 0.06
9545 H 90.80719197326192 64.27347285767902 38.28069248100735 H 0.0 **** 0.06
9546 C 192.72821247676026 72.44366347261274 166.0202272377689 C 0.0 **** -0.24
9547 H 191.97569207309613 73.23121918084911 166.05202622607197 H 0.0 **** 0.06
9548 H 192.45831911307317 71.71422573405943 165.25702327905088 H 0.0 **** 0.06
9549 H 192.78113746341901 71.95220746313896 166.9916545749807 H 0.0 **** 0.06
9550 H 193.69900913673735 72.87894193368334 165.78092896953348 H 0.0 **** 0.06
9551 C 187.64396427088502 207.9078542621516 159.08661249468648 C 0.0 **** -0.24
9552 H 188.45319100964778 208.56840798203257 158.77379462295534 H 0.0 **** 0.06
9553 H 187.66467870513364 207.79665472913592 160.17080284488105 H 0.0 **** 0.06
9554 H 187.76907596928882 206.9320727674517 158.6186256868072 H 0.0 **** 0.06
9555 H 186.68850785731425 208.33643500262446 158.78367400006914 H 0.0 **** 0.06
9556 C 76.87442327850447 156.65773488916284 73.76224262440263 C 0.0 **** -0.24
9557 H 76.40275628924708 156.87303718400085 74.72083810917837 H 0.0 **** 0.06
9558 H 77.41322108381213 157.5410877282979 73.41624427035327 H 0.0 **** 0.06
9559 H 76.10923706980496 156.38981370077488 73.03399099777369 H 0.0 **** 0.06
9560 H 77.57255951987464 155.82931545620005 73.87869499028085 H 0.0 **** 0.06
9561 C 72.56558764081429 15.470655275589081 100.72120799117626 C 0.0 **** -0.24
9562 H 73.32629701982198 14.824828319362268 101.16113405355726 H 0.0 **** 0.06
9563 H 72.43136633571554 15.210632016971743 99.67103529610806 H 0.0 **** 0.06
9564 H 72.88254011303734 16.51111992407408 100.80133666918242 H 0.0 **** 0.06
9565 H 71.62343672861154 15.335684122829008 101.25337770059211 H 0.0 **** 0.06
9566 C 151.30870835694196 57.556025963099785 23.520439061372855 C 0.0 **** -0.24
9567 H 150.96353962911945 57.98376854351203 22.57844702647786 H 0.0 **** 0.06
9568 H 151.43597263936016 56.47934314007452 23.40445608373598 H 0.0 **** 0.06
9569 H 150.57266216829345 57.7530162794333 24.299667496690248 H 0.0 **** 0.06
9570 H 152.26162371931252 58.007981295286484 23.796369908511608 H 0.0 **** 0.06
9571 C 66.16200773088332 36.82416476882648 184.68911561499704 C 0.0 **** -0.24
9572 H 65.8390732839137 35.813780962805225 184.43980249686098 H 0.0 **** 0.06
9573 H 67.24456712183627 36.896105188349054 184.5837643949413 H 0.0 **** 0.06
9574 H 65.88070133757901 37.05171042430996 185.71693068156117 H 0.0 **** 0.06
9575 H 65.68287133265574 37.535405286445425 184.01550267489762 H 0.0 **** 0.06
9576 C 209.59914512782 108.82346520693345 28.862263236337924 C 0.0 **** -0.24
9577 H 210.31831933203986 109.35402267578887 29.48738834086093 H 0.0 **** 0.06
9578 H 208.5904924788885 109.15302419138847 29.110818744383295 H 0.0 **** 0.06
9579 H 209.68566596595895 107.75162927075884 29.038106895650344 H 0.0 **** 0.06
9580 H 209.80352210459108 109.03759932322903 27.813132752755806 H 0.0 **** 0.06
9581 C 191.31359469040626 149.6245964792613 76.53820588590217 C 0.0 **** -0.24
9582 H 190.249931759503 149.73494659312837 76.74939811917746 H 0.0 **** 0.06
9583 H 191.78006595919797 149.0326988869569 77.32646152484266 H 0.0 **** 0.06
9584 H 191.77947456424656 150.60888767098874 76.49823190688535 H 0.0 **** 0.06
9585 H 191.4435998519777 149.12224901042805 75.58076566393812 H 0.0 **** 0.06
9586 C 84.20284153161515 10.266021089386598 100.28391342486009 C 0.0 **** -0.24
9587 H 84.18574095701382 10.320991120276673 101.37280231625749 H 0.0 **** 0.06
9588 H 83.35985686414062 9.666777956833968 99.93819146371635 H 0.0 **** 0.06
9589 H 85.13460633569724 9.805260093200417 99.9579582627299 H 0.0 **** 0.06
9590 H 84.12902385483324 11.27138350967381 99.86878031546814 H 0.0 **** 0.06
9591 C 150.25644541933804 53.250062448849405 199.96638493629865 C 0.0 **** -0.24
9592 H 150.39254058207774 52.1807227738048 199.80676384651878 H 0.0 **** 0.06
9593 H 149.39409045308804 53.41233429704482 200.61377192489442 H 0.0 **** 0.06
9594 H 150.0902133410272 53.74230662317967 199.0089619993954 H 0.0 **** 0.06
9595 H 151.14775678451008 53.663246746474584 200.4384748873439 H 0.0 **** 0.06
9596 C 7.975705674847603 39.86321561053825 45.506570594762024 C 0.0 **** -0.24
9597 H 7.88765345038064 40.2024442694327 46.53863883745505 H 0.0 **** 0.06
9598 H 7.186889212770325 39.142555437418935 45.29185302761954 H 0.0 **** 0.06
9599 H 8.949131845046239 39.39250687425249 45.361781275097286 H 0.0 **** 0.06
9600 H 7.881913080483258 40.716348666138 44.83461741468052 H 0.0 **** 0.06
9601 C 179.9371276852758 85.737698191792 127.76735793128285 C 0.0 **** -0.24
9602 H 179.14917412077423 85.92507310112721 128.49733188474818 H 0.0 **** 0.06
9603 H 180.02180964320635 84.66538728575428 127.5918460548458 H 0.0 **** 0.06
9604 H 180.88394378995645 86.12027676198436 128.14873837281704 H 0.0 **** 0.06
9605 H 179.69239625586584 86.24212488709823 126.83207167024233 H 0.0 **** 0.06
9606 C 16.403499080175862 181.6986850826743 133.4901584188097 C 0.0 **** -0.24
9607 H 16.388466695150044 181.94382556041074 134.5522023505083 H 0.0 **** 0.06
9608 H 15.74460696552319 180.8505654987795 133.30336577093334 H 0.0 **** 0.06
9609 H 17.42013885699805 181.44292306841706 133.19021924663883 H 0.0 **** 0.06
9610 H 16.061342846713003 182.55870540632685 132.91462015866887 H 0.0 **** 0.06
9611 C 114.72316258400184 63.005224299348015 31.29541779378934 C 0.0 **** -0.24
9612 H 113.69216568685414 63.16637133148504 30.981748931207406 H 0.0 **** 0.06
9613 H 114.76798730139103 62.9450440176538 32.38290766400594 H 0.0 **** 0.06
9614 H 115.3419581509346 63.83437379120494 30.95129817034784 H 0.0 **** 0.06
9615 H 115.09217372309325 62.07431374260716 30.864074005824207 H 0.0 **** 0.06
9616 C 129.2651939323453 96.64886834936344 164.66602559789442 C 0.0 **** -0.24
9617 H 129.87787444210278 96.19077690903289 163.89036591666576 H 0.0 **** 0.06
9618 H 129.80301660904507 96.62747724217884 165.6136554407247 H 0.0 **** 0.06
9619 H 128.33175013095354 96.09625659991998 164.76540887001406 H 0.0 **** 0.06
9620 H 129.04856291139953 97.68203601288748 164.39385704314225 H 0.0 **** 0.06
9621 C 177.71745989835483 112.79191692087308 157.66278529762508 C 0.0 **** -0.24
9622 H 177.7071744744689 112.7544086194688 158.7521472558693 H 0.0 **** 0.06
9623 H 177.58727421621083 111.78547933727442 157.2637687168937 H 0.0 **** 0.06
9624 H 178.6708234365347 113.19656898233363 157.32179288750325 H 0.0 **** 0.06
9625 H 176.90558191815512 113.42922026887585 157.31333757206073 H 0.0 **** 0.06
9626 C 187.99678427857475 25.316007597126287 73.47409872172226 C 0.0 **** -0.24
9627 H 188.3677539793927 24.35253716859461 73.82449044632274 H 0.0 **** 0.06
9628 H 186.94820363641693 25.423865577433958 73.75294355905835 H 0.0 **** 0.06
9629 H 188.0918300221406 25.368705698678355 72.38915661862511 H 0.0 **** 0.06
9630 H 188.57929888539198 26.11652297019083 73.92931185260683 H 0.0 **** 0.06
9631 C 83.90111823338982 172.0648294490319 167.2221632556743 C 0.0 **** -0.24
9632 H 83.5506345833805 171.87309034963369 168.2357782945922 H 0.0 **** 0.06
9633 H 83.04931484693303 172.2845893157289 166.5780120776162 H 0.0 **** 0.06
9634 H 84.42288036164011 171.1841311402698 166.84514742126817 H 0.0 **** 0.06
9635 H 84.58261809081783 172.91583557695202 167.2274226317109 H 0.0 **** 0.06
9636 C 61.49603546328298 125.89811210765835 11.62431945789956 C 0.0 **** -0.24
9637 H 62.54511868569121 125.99610458229729 11.904703151688409 H 0.0 **** 0.06
9638 H 60.867466066521885 126.13915206037599 12.481240913657643 H 0.0 **** 0.06
9639 H 61.299277383141046 124.87522401857443 11.304504920883858 H 0.0 **** 0.06
9640 H 61.27483150637228 126.58361085144809 10.805491369109347 H 0.0 **** 0.06
9641 C 64.28245842885809 41.24146293944244 153.74185994034707 C 0.0 **** -0.24
9642 H 64.064700634534 42.23179719663568 153.34189651761187 H 0.0 **** 0.06
9643 H 63.354303066608395 40.76697762217731 154.05983075238117 H 0.0 **** 0.06
9644 H 64.95545262509941 41.33395741613367 154.59490902354588 H 0.0 **** 0.06
9645 H 64.7563195688727 40.63484096145106 152.97041744415475 H 0.0 **** 0.06
9646 C 158.2101644063572 154.92774673280752 77.72861376329774 C 0.0 **** -0.24
9647 H 157.884182587468 154.098775111789 78.3563868375191 H 0.0 **** 0.06
9648 H 159.281019028289 154.8459825278934 77.54566265090119 H 0.0 **** 0.06
9649 H 157.997828027156 155.87089576158445 78.2326418554851 H 0.0 **** 0.06
9650 H 157.67620923522196 154.8958694512288 76.77892705203197 H 0.0 **** 0.06
9651 C 98.39655718858035 184.49056073757993 106.22159462336693 C 0.0 **** -0.24
9652 H 97.34300811419422 184.5663152340735 105.95391995497518 H 0.0 **** 0.06
9653 H 98.63918570601402 185.25413536434817 106.96103653351808 H 0.0 **** 0.06
9654 H 99.00845839228481 184.63792401590703 105.33145130658876 H 0.0 **** 0.06
9655 H 98.59516763939939 183.50310533631523 106.63947005155698 H 0.0 **** 0.06
9656 C 111.57919564661124 174.98450513053194 163.78778907031617 C 0.0 **** -0.24
9657 H 112.20165911982811 174.17006614049808 163.416490670515 H 0.0 **** 0.06
9658 H 112.01547414494875 175.38764639979854 164.70160979816276 H 0.0 **** 0.06
9659 H 110.57797782134277 174.60784329527934 163.99777447461656 H 0.0 **** 0.06
9660 H 111.52050477379582 175.7696514522371 163.0344300851383 H 0.0 **** 0.06
9661 C 93.7262244030655 16.260991732985943 73.77189258204174 C 0.0 **** -0.24
9662 H 92.8290399512769 15.80428097684154 73.35233030298605 H 0.0 **** 0.06
9663 H 94.36122048124342 15.484644161762091 74.20030662156711 H 0.0 **** 0.06
9664 H 93.4427730109998 16.96963307740792 74.55015789147365 H 0.0 **** 0.06
9665 H 94.26954283034173 16.782536074267767 72.98537514134648 H 0.0 **** 0.06
9666 C 206.12411787953545 158.91579983834532 74.77206537018203 C 0.0 **** -0.24
9667 H 206.18176411882692 158.2184535031235 75.60808937947452 H 0.0 **** 0.06
9668 H 206.36505115756978 159.92011863169532 75.12073291445613 H 0.0 **** 0.06
9669 H 205.11577880272839 158.90549489959773 74.35878671906819 H 0.0 **** 0.06
9670 H 206.83540981664137 158.61832790818585 74.0020683868154 H 0.0 **** 0.06
9671 C 41.44820334272542 82.06133106471039 213.05239262781606 C 0.0 **** -0.24
9672 H 41.225661310799524 81.78347752031327 212.02292793108347 H 0.0 **** 0.06
9673 H 40.7413571441848 82.82260483819464 213.38372606177364 H 0.0 **** 0.06
9674 H 42.46282912875742 82.45442934246294 213.1115059474762 H 0.0 **** 0.06
9675 H 41.361045514405774 81.18176227665417 213.69241484894707 H 0.0 **** 0.06
9676 C 144.39003812051328 175.19285766102408 21.05597606429845 C 0.0 **** -0.24
9677 H 145.18407016912113 174.5082087806229 21.352892114617717 H 0.0 **** 0.06
9678 H 144.21664878568322 175.10543109243073 19.983293970387223 H 0.0 **** 0.06
9679 H 144.6842757449914 176.21516245698064 21.29494943695545 H 0.0 **** 0.06
9680 H 143.47509672618958 174.9436108176984 21.594193870177193 H 0.0 **** 0.06
9681 C 120.35443811586664 213.54881069206448 157.64353000476552 C 0.0 **** -0.24
9682 H 120.25950386051078 214.24491598031818 158.47748627920862 H 0.0 **** 0.06
9683 H 121.32794816700182 213.6806746396212 157.17031522027526 H 0.0 **** 0.06
9684 H 119.56748453164231 213.74460985544155 156.91536664646907 H 0.0 **** 0.06
9685 H 120.26388552394202 212.5269870352903 158.01122385755156 H 0.0 **** 0.06
9686 C 150.34333858398173 57.702935768594614 93.10625815393756 C 0.0 **** -0.24
9687 H 149.62482191772875 57.390316037866796 93.86361198941871 H 0.0 **** 0.06
9688 H 151.30991071171525 57.241761800318045 93.31143623620501 H 0.0 **** 0.06
9689 H 150.44517816348372 58.78783893171334 93.12823449139096 H 0.0 **** 0.06
9690 H 149.99347823673367 57.39045637734307 92.12209936959461 H 0.0 **** 0.06
9691 C 60.92375406830206 73.96115081075958 19.07288340828127 C 0.0 **** -0.24
9692 H 61.92356740190894 74.14813688258941 18.67958115370695 H 0.0 **** 0.06
9693 H 60.52549413549673 74.87927800635752 19.505454356425176 H 0.0 **** 0.06
9694 H 60.9751411880132 73.1895740528055 19.841796163893704 H 0.0 **** 0.06
9695 H 60.27253323045801 73.62684266838237 18.265370795384996 H 0.0 **** 0.06
9696 C 171.21340725469582 215.01867485943828 148.8798200707643 C 0.0 **** -0.24
9697 H 171.52747448265 214.37570038157406 149.7017268325281 H 0.0 **** 0.06
9698 H 170.5628558126237 215.805442301509 149.26227654750056 H 0.0 **** 0.06
9699 H 170.67219251017963 214.42533137841158 148.1420252002294 H 0.0 **** 0.06
9700 H 172.09082509475832 215.4658303342 148.4136816418419 H 0.0 **** 0.06
9701 C 133.28898887676087 56.785987023370865 212.57220960523915 C 0.0 **** -0.24
9702 H 132.4592076642524 57.25214914798596 212.04189353697564 H 0.0 **** 0.06
9703 H 133.72674156857352 57.50394088388333 213.26534087831007 H 0.0 **** 0.06
9704 H 134.0447042076661 56.46527028987458 211.85455142244493 H 0.0 **** 0.06
9705 H 132.9249904945321 55.920703022129146 213.12646037584796 H 0.0 **** 0.06
9706 C 164.64054083074575 12.926440198220021 202.02701673999204 C 0.0 **** -0.24
9707 H 165.60569430913282 12.89946986480723 202.5342834605396 H 0.0 **** 0.06
9708 H 164.21712850220885 13.92799022713416 202.10824291266601 H 0.0 **** 0.06
9709 H 163.9661476749739 12.207195218425483 202.49219592490422 H 0.0 **** 0.06
9710 H 164.77477420763591 12.671932706194895 200.97614022142278 H 0.0 **** 0.06
9711 C 166.73584645385722 143.36188030348387 139.6267143717272 C 0.0 **** -0.24
9712 H 166.22916467530644 143.6891312875129 140.53522663044436 H 0.0 **** 0.06
9713 H 166.942290182289 144.22540673813938 138.9939322365475 H 0.0 **** 0.06
9714 H 166.09751783543328 142.66157920819472 139.08808547734247 H 0.0 **** 0.06
9715 H 167.67218935093496 142.87039162482085 139.88978657548893 H 0.0 **** 0.06
9716 C 161.7090995133596 15.053466618025766 162.60559792722023 C 0.0 **** -0.24
9717 H 160.77547270654557 14.519643927438295 162.42491179849264 H 0.0 **** 0.06
9718 H 161.51937826761102 16.126756271753095 162.6067390339855 H 0.0 **** 0.06
9719 H 162.4240155190671 14.810533618661196 161.81995437787282 H 0.0 **** 0.06
9720 H 162.11575325074642 14.754176514840765 163.5722836729771 H 0.0 **** 0.06
9721 C 92.97369606999888 39.8005309373859 2.4400608527545273 C 0.0 **** -0.24
9722 H 91.92288690549333 39.5199707409399 2.367237679479757 H 0.0 **** 0.06
9723 H 93.47081034154132 39.16027496220913 3.169249329890988 H 0.0 **** 0.06
9724 H 93.0509858842317 40.84097179143593 2.7568498410491884 H 0.0 **** 0.06
9725 H 93.44921777261794 39.68050781978134 1.4666597549970675 H 0.0 **** 0.06
9726 C 110.28590924773572 109.9515011754407 114.85911322287761 C 0.0 **** -0.24
9727 H 110.96339937128364 109.74088379406454 115.68784274596634 H 0.0 **** 0.06
9728 H 109.25608872304072 109.91596242022943 115.21442269272772 H 0.0 **** 0.06
9729 H 110.42697209562708 109.20639140247765 114.07700465404251 H 0.0 **** 0.06
9730 H 110.49910735406941 110.94310747113956 114.46020890558272 H 0.0 **** 0.06
9731 C 74.71218194704333 94.82138786382016 25.481754111189588 C 0.0 **** -0.24
9732 H 74.02125659549166 95.64037460224138 25.28488868329947 H 0.0 **** 0.06
9733 H 74.52236237989526 94.00851466528381 24.780546696659144 H 0.0 **** 0.06
9734 H 74.56964212492271 94.46241190364735 26.501722649805146 H 0.0 **** 0.06
9735 H 75.73683933465212 95.17416910112898 25.361621745610762 H 0.0 **** 0.06
9736 C 85.59353820326989 144.7270502171187 85.12224025291626 C 0.0 **** -0.24
9737 H 85.76664413793286 143.89640832148945 84.43848773760276 H 0.0 **** 0.06
9738 H 84.79988237829038 144.46341526113696 85.82147925493636 H 0.0 **** 0.06
9739 H 85.29948725126947 145.61036063469902 84.55461106576699 H 0.0 **** 0.06
9740 H 86.5091977479159 144.93885159221782 85.67480963437369 H 0.0 **** 0.06
9741 C 15.163279371807448 106.8687909730662 158.66546522335443 C 0.0 **** -0.24
9742 H 16.068345205988237 106.36753088323947 159.00861431009764 H 0.0 **** 0.06
9743 H 14.332655988223934 106.16268450963553 158.66953965464415 H 0.0 **** 0.06
9744 H 15.317239973941128 107.24364333845587 157.65409241538202 H 0.0 **** 0.06
9745 H 14.935897352773395 107.70175617431848 159.3304829089494 H 0.0 **** 0.06
9746 C 110.65177004330724 187.6170737422271 59.02578765447964 C 0.0 **** -0.24
9747 H 111.55446634267776 188.22482977504666 59.092008051564676 H 0.0 **** 0.06
9748 H 110.92505642201479 186.56173836920266 59.01754454707407 H 0.0 **** 0.06
9749 H 110.11739419802814 187.86076332524925 58.10742390100506 H 0.0 **** 0.06
9750 H 110.01284736227109 187.82132735333582 59.88454221474734 H 0.0 **** 0.06
9751 C 212.53191470706403 26.48833078824731 180.16089518339808 C 0.0 **** -0.24
9752 H 213.4752907519486 26.056547615231878 180.49600572654356 H 0.0 **** 0.06
9753 H 212.7304972787909 27.39205265971671 179.58421425933605 H 0.0 **** 0.06
9754 H 211.91881464345636 26.736229330587634 181.02663229134532 H 0.0 **** 0.06
9755 H 212.0044065078976 25.767527203869562 179.5362357338903 H 0.0 **** 0.06
9756 C 82.44530313354649 13.435722232559883 59.15756563094132 C 0.0 **** -0.24
9757 H 83.0687483010215 12.65130322617172 58.728100745412945 H 0.0 **** 0.06
9758 H 81.45611053168564 13.404545987816917 58.70109200581521 H 0.0 **** 0.06
9759 H 82.90305549161586 14.406722576922988 58.96885886193638 H 0.0 **** 0.06
9760 H 82.35512205036663 13.280666571367902 60.23295358876888 H 0.0 **** 0.06
9761 C 176.87889290132964 68.30614855510207 64.64371045178893 C 0.0 **** -0.24
9762 H 177.20639531989576 67.86092786063715 65.58239560156156 H 0.0 **** 0.06
9763 H 176.16841335021613 69.10675468751627 64.84928468003716 H 0.0 **** 0.06
9764 H 176.40092007157176 67.54458602025592 64.02763609412585 H 0.0 **** 0.06
9765 H 177.7418541781159 68.71323220166299 64.11446106144905 H 0.0 **** 0.06
9766 C 76.57183519840237 124.7856329178965 109.95778627120983 C 0.0 **** -0.24
9767 H 76.71193632310525 125.48207199897787 109.13131884226358 H 0.0 **** 0.06
9768 H 77.21791685254175 125.07236911755963 110.78797721154926 H 0.0 **** 0.06
9769 H 76.82538366445527 123.77688117524589 109.6309143634913 H 0.0 **** 0.06
9770 H 75.53093735970174 124.81097573869418 110.28169919655552 H 0.0 **** 0.06
9771 C 166.81444936239745 168.7787309213361 178.5290032355409 C 0.0 **** -0.24
9772 H 167.38893777260157 169.6948273629872 178.66766656697698 H 0.0 **** 0.06
9773 H 167.09855288348507 168.3107966190333 177.5855818863394 H 0.0 **** 0.06
9774 H 165.75105802817723 169.0170190022965 178.5105155527366 H 0.0 **** 0.06
9775 H 167.0194242455976 168.09340629101405 179.3506050621339 H 0.0 **** 0.06
9776 C 133.7484784093229 77.18166081030881 7.477763189651071 C 0.0 **** -0.24
9777 H 133.4245564099922 77.28627789106923 6.442137800671546 H 0.0 **** 0.06
9778 H 134.69454485811804 76.6413162726821 7.5093573386475185 H 0.0 **** 0.06
9779 H 132.9949630895414 76.63001631760108 8.039979477715235 H 0.0 **** 0.06
9780 H 133.87975808467422 78.17006019100597 7.9186106175840365 H 0.0 **** 0.06
9781 C 135.20793089452667 153.12469818521237 180.01079407220885 C 0.0 **** -0.24
9782 H 134.3354022199515 152.93719010260008 180.63705246711982 H 0.0 **** 0.06
9783 H 135.79863883557107 152.21210846953812 179.9284941139774 H 0.0 **** 0.06
9784 H 135.81400114192553 153.9113072395529 180.46011265086935 H 0.0 **** 0.06
9785 H 134.88197879210378 153.4386937544529 179.01887514562827 H 0.0 **** 0.06
9786 C 22.311458595926453 203.60876886623413 196.14477972310425 C 0.0 **** -0.24
9787 H 21.650793403945116 203.0212488826165 195.5071066777973 H 0.0 **** 0.06
9788 H 23.040069204732475 204.1331784745734 195.52621179077806 H 0.0 **** 0.06
9789 H 22.83056340276383 202.94770212912942 196.8379925958781 H 0.0 **** 0.06
9790 H 21.72154412639631 204.33384719360194 196.7063992493904 H 0.0 **** 0.06
9791 C 140.42500284244346 20.448052458958728 113.04778846186407 C 0.0 **** -0.24
9792 H 139.36787752287353 20.548450124898594 112.7981416417057 H 0.0 **** 0.06
9793 H 140.63051414245234 19.421044632832746 113.34766534831708 H 0.0 **** 0.06
9794 H 140.668754137135 21.122710558565814 113.86796763592186 H 0.0 **** 0.06
9795 H 141.02939427613597 20.700925143015212 112.17705858103893 H 0.0 **** 0.06
9796 C 100.02964861382155 77.08364745490827 23.161532859425435 C 0.0 **** -0.24
9797 H 99.50443452337221 76.49676832563783 22.407689247535828 H 0.0 **** 0.06
9798 H 100.66206578096548 76.42551051900703 23.759170269262157 H 0.0 **** 0.06
9799 H 99.30430913771865 77.57598502518242 23.809865729654163 H 0.0 **** 0.06
9800 H 100.64808074691011 77.83490688339926 22.671380752926865 H 0.0 **** 0.06
9801 C 96.5021291528357 184.75938340695888 109.40136659176183 C 0.0 **** -0.24
9802 H 96.14314487011175 185.78381846802347 109.50032227644608 H 0.0 **** 0.06
9803 H 95.83985818076012 184.20439090459075 108.73735408521158 H 0.0 **** 0.06
9804 H 96.51736607323356 184.2835185662737 110.38210592183303 H 0.0 **** 0.06
9805 H 97.51147049269072 184.7674536462652 108.98617612900422 H 0.0 **** 0.06
9806 C 17.754332977327138 71.56460436955716 100.62359086502688 C 0.0 **** -0.24
9807 H 16.95225130924311 72.29505342929274 100.72848272346867 H 0.0 **** 0.06
9808 H 17.473285956162883 70.64142879432218 101.13085960409471 H 0.0 **** 0.06
9809 H 18.66722724380638 71.95998975536604 101.06767821175312 H 0.0 **** 0.06
9810 H 17.923371130748492 71.36072384815294 99.56590188193145 H 0.0 **** 0.06
9811 C 9.426068168265033 211.2955552168487 13.895103032020415 C 0.0 **** -0.24
9812 H 10.120461397921787 210.72693877931195 13.276957808075508 H 0.0 **** 0.06
9813 H 8.422941944262845 211.22648863792557 13.47245808709252 H 0.0 **** 0.06
9814 H 9.736991161358887 212.3395254947131 13.92465089822133 H 0.0 **** 0.06
9815 H 9.422598388287824 210.88881969876317 14.906746906419471 H 0.0 **** 0.06
9816 C 179.96325086079105 113.68346373588979 13.966376369575983 C 0.0 **** -0.24
9817 H 179.1687093374413 114.39651187351804 14.183770571370076 H 0.0 **** 0.06
9818 H 179.701191721587 113.10694216588904 13.079908658502234 H 0.0 **** 0.06
9819 H 180.0896977281398 113.01020807777185 14.81455568719224 H 0.0 **** 0.06
9820 H 180.894905247954 114.22157170971097 13.788190881444848 H 0.0 **** 0.06
9821 C 212.9322447637294 7.569592509847723 101.97987950477251 C 0.0 **** -0.24
9822 H 212.09418120398755 7.719534112822089 102.66004721300418 H 0.0 **** 0.06
9823 H 212.55601427689106 7.297310269383814 100.99402803001651 H 0.0 **** 0.06
9824 H 213.5686446584977 6.770032738332219 102.35978013813907 H 0.0 **** 0.06
9825 H 213.5104992038619 8.491278706005858 101.90734321998097 H 0.0 **** 0.06
9826 C 213.44689335574648 118.07674313322089 189.0639452585139 C 0.0 **** -0.24
9827 H 214.05357651207987 118.81713757514707 189.58624859077554 H 0.0 **** 0.06
9828 H 212.4672556607455 118.50088245598162 188.84280285050863 H 0.0 **** 0.06
9829 H 213.32720894825547 117.19561114748008 189.6941787071205 H 0.0 **** 0.06
9830 H 213.93912420790468 117.79392466672543 188.13412989062817 H 0.0 **** 0.06
9831 C 9.583746735321085 85.4294778035535 200.31722194637302 C 0.0 **** -0.24
9832 H 10.656451871205576 85.23710858447366 200.3155175627625 H 0.0 **** 0.06
9833 H 9.404103981600997 86.48994588562387 200.4900746048711 H 0.0 **** 0.06
9834 H 9.11209858825066 84.84670504096148 201.1092087453963 H 0.0 **** 0.06
9835 H 9.16205418287879 85.14086553383582 199.35443874899883 H 0.0 **** 0.06
9836 C 34.58167529236799 14.580926186505721 18.358227685380854 C 0.0 **** -0.24
9837 H 33.584276912628255 14.490977055709237 17.929209337162376 H 0.0 **** 0.06
9838 H 35.24598914576865 15.056417861943032 17.635139900933382 H 0.0 **** 0.06
9839 H 34.96321763417659 13.590434334559134 18.604149324825727 H 0.0 **** 0.06
9840 H 34.535543154853 15.187866876911642 19.262261399049123 H 0.0 **** 0.06
9841 C 107.17652964832119 66.86899485401602 41.24909530605564 C 0.0 **** -0.24
9842 H 107.44134736079279 66.01777959379322 40.622454831588016 H 0.0 **** 0.06
9843 H 106.1808817943277 67.22187122198432 40.9800028333257 H 0.0 **** 0.06
9844 H 107.89961890370672 67.6696541226778 41.09849724720043 H 0.0 **** 0.06
9845 H 107.18382117713124 66.5647496777541 42.29573174836665 H 0.0 **** 0.06
9846 C 19.291792277946996 5.340385082796047 61.554092260213 C 0.0 **** -0.24
9847 H 19.52604268245281 6.333179717130889 61.9373698189778 H 0.0 **** 0.06
9848 H 18.66125041119588 5.431403526205344 60.66947836755048 H 0.0 **** 0.06
9849 H 18.764775929252863 4.771354250334241 62.32028337531395 H 0.0 **** 0.06
9850 H 20.216515579166398 4.825519125796234 61.29123484760589 H 0.0 **** 0.06
9851 C 146.62620322680317 114.65294188928921 120.18521567662054 C 0.0 **** -0.24
9852 H 147.41806709779763 115.40216403174894 120.160803741758 H 0.0 **** 0.06
9853 H 146.39544508740022 114.40387289265065 121.22108799321882 H 0.0 **** 0.06
9854 H 146.95870335535932 113.75615743984106 119.66193806311168 H 0.0 **** 0.06
9855 H 145.73563626022946 115.04943558230009 119.69896847278176 H 0.0 **** 0.06
9856 C 99.9169619102504 164.11129602409005 131.9542657482882 C 0.0 **** -0.24
9857 H 99.75963671894067 164.08541321216626 133.03318837039365 H 0.0 **** 0.06
9858 H 100.02448959800972 163.09425621471848 131.57842809231397 H 0.0 **** 0.06
9859 H 100.8208365844103 164.6793441718093 131.73218236986105 H 0.0 **** 0.06
9860 H 99.06179660472878 164.58797371341893 131.47451495115615 H 0.0 **** 0.06
9861 C 53.08501587415793 114.79359735683971 88.52216322549253 C 0.0 **** -0.24
9862 H 53.272235135414064 115.79390616647555 88.91317905385671 H 0.0 **** 0.06
9863 H 52.701988336619195 114.86755801437948 87.50445999770221 H 0.0 **** 0.06
9864 H 52.350832314000854 114.2902661806499 89.1516498198867 H 0.0 **** 0.06
9865 H 54.01475873310142 114.22439420744325 88.52179866528365 H 0.0 **** 0.06
9866 C 153.85461079272864 66.96710899603535 71.65005030054265 C 0.0 **** -0.24
9867 H 154.84547638816093 67.26000648126647 71.9964757085565 H 0.0 **** 0.06
9868 H 153.53374774176774 66.07122397332346 72.1839745538273 H 0.0 **** 0.06
9869 H 153.88945268863057 66.7597166275077 70.58111411760127 H 0.0 **** 0.06
9870 H 153.14923424325627 67.77609605624141 71.8417636486699 H 0.0 **** 0.06
9871 C 118.01364572315218 166.73263575310932 207.26974532176428 C 0.0 **** -0.24
9872 H 117.0557581514655 166.53831607565408 206.78579757298468 H 0.0 **** 0.06
9873 H 118.38165793707581 167.71257147821274 206.96695973824222 H 0.0 **** 0.06
9874 H 118.73044537810362 165.96668559600334 206.97308599747436 H 0.0 **** 0.06
9875 H 117.88423885864968 166.71025584339984 208.35127484990568 H 0.0 **** 0.06
9876 C 168.86645712853323 1.988400971890286 169.66697089859605 C 0.0 **** -0.24
9877 H 169.02741791812724 0.9984372125980627 169.23937467835663 H 0.0 **** 0.06
9878 H 168.19349620899953 2.556452328996798 169.02488181705553 H 0.0 **** 0.06
9879 H 169.8201357805026 2.5101206962007225 169.74597527749438 H 0.0 **** 0.06
9880 H 168.42494281752596 1.8878381439193248 170.65883600032993 H 0.0 **** 0.06
9881 C 19.395720610269237 148.58757341180802 11.571507685096137 C 0.0 **** -0.24
9882 H 18.35607829377021 148.28097341554263 11.691946275655681 H 0.0 **** 0.06
9883 H 19.46605776733749 149.32378541200654 10.770106580562882 H 0.0 **** 0.06
9884 H 20.003405689298347 147.71790277196044 11.321831981585959 H 0.0 **** 0.06
9885 H 19.754420731089127 149.02695421433543 12.502266445022443 H 0.0 **** 0.06
9886 C 90.65767304514988 33.33748789707954 124.97070533118627 C 0.0 **** -0.24
9887 H 91.42136322680174 32.877804791611794 124.34464154986794 H 0.0 **** 0.06
9888 H 89.67037452700733 33.093330796816915 124.57699210458937 H 0.0 **** 0.06
9889 H 90.7911900451248 34.419578093881995 124.97111063585321 H 0.0 **** 0.06
9890 H 90.7466805167325 32.95996884690646 125.98953759388478 H 0.0 **** 0.06
9891 C 17.68091870577574 64.43749594219474 128.00151567881335 C 0.0 **** -0.24
9892 H 18.061408072889563 64.005556870607 128.92792630140735 H 0.0 **** 0.06
9893 H 17.24425870277821 65.41446437628503 128.2089038607936 H 0.0 **** 0.06
9894 H 16.920630062963298 63.780869442775895 127.58038751524067 H 0.0 **** 0.06
9895 H 18.499653956840532 64.54911516415694 127.29052420356304 H 0.0 **** 0.06
9896 C 90.38685682620134 193.88326244356747 32.266400649200506 C 0.0 **** -0.24
9897 H 91.05966685236582 194.7216473641084 32.082266042161905 H 0.0 **** 0.06
9898 H 90.72650819939754 193.33231027968034 33.144212598054196 H 0.0 **** 0.06
9899 H 90.38495306860996 193.22241607680783 31.4007416183166 H 0.0 **** 0.06
9900 H 89.37861039552037 194.2590654870339 32.44009964686211 H 0.0 **** 0.06
9901 C 51.922700641692785 19.17966569944059 115.99853108013684 C 0.0 **** -0.24
9902 H 52.71426785526947 18.430575057978245 115.97628932325568 H 0.0 **** 0.06
9903 H 52.27710200092375 20.065153116446808 116.52676479546665 H 0.0 **** 0.06
9904 H 51.05206944935142 18.773928009731392 116.51292040326047 H 0.0 **** 0.06
9905 H 51.64945076593483 19.44977458419777 114.97837921087392 H 0.0 **** 0.06
9906 C 10.780471652926693 120.95975045884173 192.54984315578557 C 0.0 **** -0.24
9907 H 11.207647468812524 120.94660274510967 193.55307050479695 H 0.0 **** 0.06
9908 H 11.535343507905765 120.64236434700369 191.82949136780402 H 0.0 **** 0.06
9909 H 10.451031522237798 121.9709612325547 192.3096346639889 H 0.0 **** 0.06
9910 H 9.930076759607275 120.28059945123142 192.50850869749317 H 0.0 **** 0.06
9911 C 90.37538535434572 30.57851438086152 122.59379439253651 C 0.0 **** -0.24
9912 H 90.53368336573385 29.614666644329986 122.11093996116666 H 0.0 **** 0.06
9913 H 89.4064250666022 30.97971146526595 122.29532829589347 H 0.0 **** 0.06
9914 H 91.16361836217618 31.26873152439873 122.29270609776829 H 0.0 **** 0.06
9915 H 90.39794368841461 30.450099711004214 123.6756894523799 H 0.0 **** 0.06
9916 C 197.798404820281 98.06435279858921 9.72430377809738 C 0.0 **** -0.24
9917 H 197.09802130789217 97.28869215339792 9.414497973091954 H 0.0 **** 0.06
9918 H 198.0955628987907 97.89194856871602 10.759585393846805 H 0.0 **** 0.06
9919 H 197.3195487919921 99.03973352931946 9.64130702067115 H 0.0 **** 0.06
9920 H 198.6791313965607 98.03627659882837 9.083718467840214 H 0.0 **** 0.06
9921 C 194.91768908116381 59.52981392160319 150.23452976992394 C 0.0 **** -0.24
9922 H 195.68409535389176 58.80145409320039 149.96892192407864 H 0.0 **** 0.06
9923 H 195.36346955231164 60.524423741889166 150.28270912933738 H 0.0 **** 0.06
9924 H 194.4951453206338 59.27358917387187 151.20583135933373 H 0.0 **** 0.06
9925 H 194.1304388567079 59.520067158374616 149.48110080089435 H 0.0 **** 0.06
9926 C 90.84362627123788 177.78713821030522 158.99421964137503 C 0.0 **** -0.24
9927 H 90.55415304790161 178.11795451259792 157.99662504971678 H 0.0 **** 0.06
9928 H 91.91127384907462 177.9540971267067 159.13659416503583 H 0.0 **** 0.06
9929 H 90.62405694411201 176.72420402030986 159.10134750397276 H 0.0 **** 0.06
9930 H 90.2837435690155 178.35054901790537 159.74116660778233 H 0.0 **** 0.06
9931 C 60.156928829789564 178.57992271047738 65.32433718735408 C 0.0 **** -0.24
9932 H 60.48055935117249 177.74462543417334 65.94490779042737 H 0.0 **** 0.06
9933 H 59.702560554890056 179.34567726227309 65.95377470563274 H 0.0 **** 0.06
9934 H 59.426933172681146 178.22859096694924 64.59449713750367 H 0.0 **** 0.06
9935 H 61.01766224041461 179.00079717851386 64.80416911585243 H 0.0 **** 0.06
9936 C 93.83152723135315 85.8055483326072 50.34598861973035 C 0.0 **** -0.24
9937 H 92.92533442887712 86.342569410485 50.063476451601616 H 0.0 **** 0.06
9938 H 94.02446287250366 85.01366454935021 49.62149426682936 H 0.0 **** 0.06
9939 H 93.70101766122475 85.36867621287257 51.33570884710298 H 0.0 **** 0.06
9940 H 94.67358270449692 86.49746755757911 50.361847441344764 H 0.0 **** 0.06
9941 C 139.51532883428177 189.34061960948836 81.87600032779551 C 0.0 **** -0.24
9942 H 139.05443552071665 189.60357900040367 80.92412699538909 H 0.0 **** 0.06
9943 H 139.18017979862475 190.03570748217697 82.64615168845114 H 0.0 **** 0.06
9944 H 140.5992662444989 189.396452691537 81.78307309757753 H 0.0 **** 0.06
9945 H 139.22525987878265 188.32705992065164 82.15173187147741 H 0.0 **** 0.06
9946 C 109.69540430802674 133.2978071079208 51.37427890525802 C 0.0 **** -0.24
9947 H 110.09699890211466 132.5508878524119 52.05905517829649 H 0.0 **** 0.06
9948 H 109.1512915324205 134.0542691349654 51.93947676407845 H 0.0 **** 0.06
9949 H 109.0204503791157 132.81649484371337 50.66637577696534 H 0.0 **** 0.06
9950 H 110.515478479941 133.76917817049662 50.831173172220716 H 0.0 **** 0.06
9951 C 24.120801058970955 89.97413652698707 116.28394204687352 C 0.0 **** -0.24
9952 H 23.054837536234515 90.02968267685266 116.50527784230549 H 0.0 **** 0.06
9953 H 24.548401838089717 89.10213601015919 116.77821100128209 H 0.0 **** 0.06
9954 H 24.613166147234125 90.87604394081963 116.64712349960591 H 0.0 **** 0.06
9955 H 24.264166752831414 89.89043799709448 115.20688635555582 H 0.0 **** 0.06
9956 C 150.58214405176324 198.49724127909758 52.82565427979921 C 0.0 **** -0.24
9957 H 151.47237916889537 197.92357310687436 52.564864274486524 H 0.0 **** 0.06
9958 H 150.29051189701198 198.26754367486217 53.851152625260795 H 0.0 **** 0.06
9959 H 149.7696137435642 198.23504046395755 52.148507798641106 H 0.0 **** 0.06
9960 H 150.79917897524274 199.56151132183288 52.73890613175763 H 0.0 **** 0.06
9961 C 88.92640841097659 181.7535996623963 144.08302191532363 C 0.0 **** -0.24
9962 H 88.97387821569741 180.90817867731528 144.7682657302957 H 0.0 **** 0.06
9963 H 89.93326321382894 182.01038051059984 143.75268549482377 H 0.0 **** 0.06
9964 H 88.48201992510019 182.6094539587867 144.59246323410923 H 0.0 **** 0.06
9965 H 88.31679626949398 181.48801511643217 143.2191625356432 H 0.0 **** 0.06
9966 C 43.30652869393461 14.394130686360484 106.06417871701733 C 0.0 **** -0.24
9967 H 43.989056562429184 14.091922191350818 106.85839711800621 H 0.0 **** 0.06
9968 H 43.87876619871369 14.807796672897553 105.23321792204284 H 0.0 **** 0.06
9969 H 42.619193917028156 15.148976011822924 106.44419523092076 H 0.0 **** 0.06
9970 H 42.74204434790411 13.527318626879179 105.72115042951758 H 0.0 **** 0.06
9971 C 112.87059930374402 69.0004367493367 5.516754450292893 C 0.0 **** -0.24
9972 H 113.7208254054148 68.38886475190947 5.217506431545672 H 0.0 **** 0.06
9973 H 113.18089062214877 70.0434303794247 5.587243730574357 H 0.0 **** 0.06
9974 H 112.50284638327021 68.6634598468408 6.4858744074742845 H 0.0 **** 0.06
9975 H 112.07669571338751 68.9073593432247 4.774710080104427 H 0.0 **** 0.06
9976 C 108.2415561164873 80.10578851244827 11.641725053504445 C 0.0 **** -0.24
9977 H 108.14307981739118 79.04663557995866 11.400116587481193 H 0.0 **** 0.06
9978 H 107.39581644026781 80.65295179351278 11.223061809639717 H 0.0 **** 0.06
9979 H 109.16912896061815 80.49074729178886 11.21775630745526 H 0.0 **** 0.06
9980 H 108.25678255157347 80.2311338815731 12.723927813567059 H 0.0 **** 0.06
9981 C 183.30647004928375 196.5776203416224 21.693142919573745 C 0.0 **** -0.24
9982 H 183.17969115085174 197.29533731223026 20.882331840348712 H 0.0 **** 0.06
9983 H 182.37446526403892 196.03203536413685 21.844666082225274 H 0.0 **** 0.06
9984 H 183.5707011341717 197.10829735331814 22.60860236893234 H 0.0 **** 0.06
9985 H 184.1011006604718 195.87706576278939 21.43792615337611 H 0.0 **** 0.06
9986 C 63.39469089725469 70.88748360944902 117.00395277053518 C 0.0 **** -0.24
9987 H 63.073941668113804 71.00138966403978 115.96829332592908 H 0.0 **** 0.06
9988 H 63.61169416604726 71.86814112737625 117.42681272589125 H 0.0 **** 0.06
9989 H 64.29199691207637 70.2691563406047 117.03988955504529 H 0.0 **** 0.06
9990 H 62.60237315629031 70.40984973115536 117.57923321612456 H 0.0 **** 0.06
9991 C 131.51185748657008 33.72349803831547 51.26508781744644 C 0.0 **** -0.24
9992 H 130.69302208235985 34.01189165461459 50.60547061736287 H 0.0 **** 0.06
9993 H 131.15860959047467 32.97636500167093 51.97669326126504 H 0.0 **** 0.06
9994 H 131.86887539741952 34.60090385251823 51.80470841732915 H 0.0 **** 0.06
9995 H 132.32453186831015 33.30564757978068 50.67220717697313 H 0.0 **** 0.06
9996 C 134.87174152588562 207.19833946371713 100.66244150712895 C 0.0 **** -0.24
9997 H 134.7615791736988 207.06356289094714 101.73854590337531 H 0.0 **** 0.06
9998 H 135.76944117338599 206.6830991952269 100.32082191719762 H 0.0 **** 0.06
9999 H 134.95382516767734 208.26152897636425 100.43624584952825 H 0.0 **** 0.06
10000 H 134.00015794304034 206.78597837880167 100.1534527629296 H 0.0 **** 0.06
10001 C 50.91346654276643 8.140043827221376 100.66629629694148 C 0.0 **** -0.24
10002 H 51.718589245750906 8.221569092207858 99.93543569694742 H 0.0 **** 0.06
10003 H 49.95735506842857 8.083469888449116 100.14763711677546 H 0.0 **** 0.06
10004 H 50.92369564929058 9.015085458651583 101.31719388372818 H 0.0 **** 0.06
10005 H 51.05722526400751 7.240117569522326 101.26488155394361 H 0.0 **** 0.06
10006 C 169.53726228471567 121.04249008766426 143.8641689310183 C 0.0 **** -0.24
10007 H 170.41672510779387 120.45794277102517 144.1353897348119 H 0.0 **** 0.06
10008 H 169.7336746799444 121.585263264125 142.9398759166915 H 0.0 **** 0.06
10009 H 169.31157110779435 121.75007974585448 144.6615079382879 H 0.0 **** 0.06
10010 H 168.6881020065722 120.37407555770845 143.72034618532717 H 0.0 **** 0.06
10011 C 115.0628540191842 6.506549723038347 128.73992559210058 C 0.0 **** -0.24
10012 H 114.15098829745658 6.083224255438552 129.16198672886435 H 0.0 **** 0.06
10013 H 115.82275652744893 5.729033352519423 128.6635737534499 H 0.0 **** 0.06
10014 H 115.42398270628102 7.306826112556394 129.3860702452139 H 0.0 **** 0.06
10015 H 114.85148916576857 6.906774586875287 127.74828800940024 H 0.0 **** 0.06
10016 C 183.44739886270747 160.0276901304852 115.19395368990847 C 0.0 **** -0.24
10017 H 184.32672881189328 160.2362925537063 115.80434129348767 H 0.0 **** 0.06
10018 H 182.84452564639264 159.2589227252215 115.67685915764166 H 0.0 **** 0.06
10019 H 183.76274965610986 159.6802945608624 114.21060059198327 H 0.0 **** 0.06
10020 H 182.8576244206576 160.9381821497298 115.08608092587316 H 0.0 **** 0.06
10021 C 72.29655879779762 150.51897435049392 146.3370458252151 C 0.0 **** -0.24
10022 H 71.59694655292577 149.8574231126865 146.84786066658899 H 0.0 **** 0.06
10023 H 72.37368624978376 150.22490517236804 145.2895660701211 H 0.0 **** 0.06
10024 H 73.27681620434146 150.44654329352687 146.8083878445076 H 0.0 **** 0.06
10025 H 71.93748978553674 151.54623406396973 146.39998280194368 H 0.0 **** 0.06
10026 C 84.95365831571883 65.615301767691 199.22807447766218 C 0.0 **** -0.24
10027 H 84.59625408144802 64.58795716630453 199.1509872725906 H 0.0 **** 0.06
10028 H 84.25839587754109 66.1963892455313 199.83319893345475 H 0.0 **** 0.06
10029 H 85.02151006456478 66.05164849050135 198.2322899685022 H 0.0 **** 0.06
10030 H 85.93720967201682 65.62259570117016 199.69656849529946 H 0.0 **** 0.06
10031 C 17.382310414923666 5.6433479577729315 183.19684180644907 C 0.0 **** -0.24
10032 H 16.87341910710188 4.761875242162006 183.58671437895174 H 0.0 **** 0.06
10033 H 18.361707544366254 5.734185696675155 183.6673467663366 H 0.0 **** 0.06
10034 H 16.790014867304762 6.531525947271319 183.41471783463803 H 0.0 **** 0.06
10035 H 17.50552357692476 5.544366312511869 182.1176373245786 H 0.0 **** 0.06
10036 C 171.13117339317242 5.147665003250509 155.07990051307098 C 0.0 **** -0.24
10037 H 170.9615122645459 6.0498575638622185 155.6669003496611 H 0.0 **** 0.06
10038 H 171.57213583071857 5.417459377120522 154.1201029995189 H 0.0 **** 0.06
10039 H 170.18244670102823 4.6380308428507675 154.91417541301632 H 0.0 **** 0.06
10040 H 171.80987550938815 4.486801139402182 155.619497154106 H 0.0 **** 0.06
10041 C 74.01562749038276 22.12202739183789 90.27260065718427 C 0.0 **** -0.24
10042 H 73.08763743160232 21.599706112529105 90.03743031726854 H 0.0 **** 0.06
10043 H 74.54475512317201 21.58529785798703 91.06009700264362 H 0.0 **** 0.06
10044 H 73.78618303886229 23.13302672355161 90.61153539674366 H 0.0 **** 0.06
10045 H 74.64077676222546 22.17107464892689 89.38114460784458 H 0.0 **** 0.06
10046 C 134.32604144373988 26.39767642126769 191.73261460927196 C 0.0 **** -0.24
10047 H 135.2544540022177 26.0505328025952 192.18492263257866 H 0.0 **** 0.06
10048 H 133.60819491300492 25.577553582840196 191.7030166977851 H 0.0 **** 0.06
10049 H 134.5231233787797 26.744915006868624 190.71899032434905 H 0.0 **** 0.06
10050 H 133.91719515323229 27.216533554502092 192.3246212339185 H 0.0 **** 0.06
10051 C 116.38303674060829 168.01385938745364 136.78088908219524 C 0.0 **** -0.24
10052 H 117.39547952611606 168.12320056614678 137.1709727492709 H 0.0 **** 0.06
10053 H 115.67242050699757 168.02047485501913 137.6072098044806 H 0.0 **** 0.06
10054 H 116.30279607903832 167.07088005929106 136.2401816215148 H 0.0 **** 0.06
10055 H 116.16293188743516 168.83993396926797 136.1038109511714 H 0.0 **** 0.06
10056 C 120.79734765676716 45.00222513017533 48.7624477328377 C 0.0 **** -0.24
10057 H 119.9959155850513 45.525877933164836 49.284091789400236 H 0.0 **** 0.06
10058 H 121.61120723205067 44.797258220452846 49.45882285795767 H 0.0 **** 0.06
10059 H 121.16546499657113 45.62395747490484 47.946185117962386 H 0.0 **** 0.06
10060 H 120.41723483673564 44.062703736603794 48.360786259984536 H 0.0 **** 0.06
10061 C 111.53495387019923 41.11671879230522 22.785277016978284 C 0.0 **** -0.24
10062 H 111.93218233302518 40.121878058371806 22.585713528591867 H 0.0 **** 0.06
10063 H 111.33621327597804 41.22143652511522 23.853086715852612 H 0.0 **** 0.06
10064 H 110.60958340293907 41.256587355975626 22.22842301136251 H 0.0 **** 0.06
10065 H 112.26244472261952 41.866693627372456 22.476018338437655 H 0.0 **** 0.06
10066 C 104.95106372336262 9.812161838837028 131.34649053411238 C 0.0 **** -0.24
10067 H 104.04007802027736 10.25288895271484 130.93986193217734 H 0.0 **** 0.06
10068 H 104.93762221578136 9.88976474035536 132.43333101952436 H 0.0 **** 0.06
10069 H 105.81727117423664 10.345247300332005 130.95435703363847 H 0.0 **** 0.06
10070 H 105.00795308187507 8.763215117940263 131.05664142732746 H 0.0 **** 0.06
10071 C 29.478205181706215 92.4309329661633 81.07585839031327 C 0.0 **** -0.24
10072 H 28.448379575368563 92.7227233793805 81.28318113745661 H 0.0 **** 0.06
10073 H 30.111423686351884 92.71060500350056 81.91815526361933 H 0.0 **** 0.06
10074 H 29.825460576821513 92.93802951154377 80.1756912282101 H 0.0 **** 0.06
10075 H 29.52656918737341 91.3523268251276 80.92741699979416 H 0.0 **** 0.06
10076 C 0.8428306465080055 59.74917114628815 184.99275455110433 C 0.0 **** -0.24
10077 H 1.2264781831564164 59.68650026102058 186.01010799550932 H 0.0 **** 0.06
10078 H 1.0466632839924799 60.74130355510506 184.5882552315507 H 0.0 **** 0.06
10079 H -0.23362002922840475 59.574144915751035 184.99907280436963 H 0.0 **** 0.06
10080 H 1.3292218677169956 58.996564782596366 184.37353217621714 H 0.0 **** 0.06
10081 C 209.07437798594012 173.12928400513127 130.08301584332588 C 0.0 **** -0.24
10082 H 210.0532276125242 173.5434491528071 129.83895684431673 H 0.0 **** 0.06
10083 H 208.76855925193348 172.43432332623325 129.30172801345765 H 0.0 **** 0.06
10084 H 208.34730067499348 173.9381119604576 130.15652136489808 H 0.0 **** 0.06
10085 H 209.13063933972376 172.6041583951915 131.03676628149464 H 0.0 **** 0.06
10086 C 71.94500672298328 21.551588076109027 11.31894104970769 C 0.0 **** -0.24
10087 H 71.17857950286405 22.162907513402658 10.842590341388757 H 0.0 **** 0.06
10088 H 71.47048486972842 20.805256756818707 11.957294976600451 H 0.0 **** 0.06
10089 H 72.59268229114382 22.18786273222105 11.922864946544905 H 0.0 **** 0.06
10090 H 72.53858492848066 21.051529116456308 10.55369070780003 H 0.0 **** 0.06
10091 C 70.06337263102705 99.96679713573639 55.89040468958957 C 0.0 **** -0.24
10092 H 71.04216188265184 99.85760115678164 56.35715298441461 H 0.0 **** 0.06
10093 H 69.86484435492167 99.10281184090735 55.256435395806676 H 0.0 **** 0.06
10094 H 70.05021103161897 100.87369610305245 55.284415249197025 H 0.0 **** 0.06
10095 H 69.29772172959957 100.03513039559323 56.66231295887606 H 0.0 **** 0.06
10096 C 76.28767097805417 5.721375863276819 173.23472658153398 C 0.0 **** -0.24
10097 H 76.91844816411805 5.106110807277105 172.59132139968702 H 0.0 **** 0.06
10098 H 76.20915217226303 5.256820277393672 174.21732926367935 H 0.0 **** 0.06
10099 H 75.295625359636 5.809216365760335 172.79283671131756 H 0.0 **** 0.06
10100 H 76.72992218516384 6.71218142731675 173.3355349620392 H 0.0 **** 0.06
10101 C 212.68570888442224 169.1096796569747 173.02161532913476 C 0.0 **** -0.24
10102 H 213.48480763211478 168.86238253576255 173.7211969750761 H 0.0 **** 0.06
10103 H 211.7478965811546 168.67962337323556 173.37409060924819 H 0.0 **** 0.06
10104 H 212.9260450302487 168.70341793341535 172.03845150352345 H 0.0 **** 0.06
10105 H 212.5862439764873 170.1929331311644 172.95318450341244 H 0.0 **** 0.06
10106 C 160.48466414202372 152.92834278284005 4.068366091056873 C 0.0 **** -0.24
10107 H 159.49147799249977 152.6682573418321 4.433697396490459 H 0.0 **** 0.06
10108 H 161.22265946432938 152.2617777046895 4.517104405620444 H 0.0 **** 0.06
10109 H 160.71341837558953 153.95902646197084 4.340019908376632 H 0.0 **** 0.06
10110 H 160.51223264467876 152.82423253475957 2.983951428082804 H 0.0 **** 0.06
10111 C 166.81516367098413 58.35531574168051 146.52434476637637 C 0.0 **** -0.24
10112 H 166.12020259511334 59.17634989612459 146.70180226737767 H 0.0 **** 0.06
10113 H 167.73232087349015 58.7462843119862 146.08330011190213 H 0.0 **** 0.06
10114 H 166.3608832837454 57.636896456246944 145.8411777182912 H 0.0 **** 0.06
10115 H 167.04588330539335 57.86348446546741 147.46908207122175 H 0.0 **** 0.06
10116 C 61.46190387859508 39.263167211756695 65.42745556997876 C 0.0 **** -0.24
10117 H 60.374671721340235 39.22806651610318 65.47508194086161 H 0.0 **** 0.06
10118 H 61.88019027820786 38.838143858433455 66.33978816901262 H 0.0 **** 0.06
10119 H 61.7885503888445 40.29796540843262 65.32595738697647 H 0.0 **** 0.06
10120 H 61.80643850486223 38.68759561139356 64.56720654019942 H 0.0 **** 0.06
10121 C 59.688690259233994 109.20224479331313 24.34387064858977 C 0.0 **** -0.24
10122 H 59.27232408667241 109.37716843004512 23.351659444220346 H 0.0 **** 0.06
10123 H 59.32632775021219 108.24663090610954 24.72580216841469 H 0.0 **** 0.06
10124 H 59.377611771140394 110.00401850961651 25.01415881961759 H 0.0 **** 0.06
10125 H 60.77634145724279 109.18021602927877 24.28318518413961 H 0.0 **** 0.06
10126 C 67.52428755224919 136.9764074620404 191.47604743676985 C 0.0 **** -0.24
10127 H 66.9954644673885 136.0279914370488 191.39323264599653 H 0.0 **** 0.06
10128 H 66.91406846540971 137.77056804035686 191.04514630046174 H 0.0 **** 0.06
10129 H 68.47036805041634 136.9136559483938 190.9389579987028 H 0.0 **** 0.06
10130 H 67.71619413721584 137.19546549305454 192.52602818150575 H 0.0 **** 0.06
10131 C 205.41222277052827 148.97728981595128 190.37576937989505 C 0.0 **** -0.24
10132 H 206.20306477207686 149.3396073281176 189.7178908884801 H 0.0 **** 0.06
10133 H 204.45093314562524 149.35491887621782 190.0279408601308 H 0.0 **** 0.06
10134 H 205.59638143447526 149.32740128865402 191.39094259778545 H 0.0 **** 0.06
10135 H 205.40166573824683 147.8880580223755 190.36377932135292 H 0.0 **** 0.06
10136 C 168.5810678864941 166.9700510327756 181.41118571648963 C 0.0 **** -0.24
10137 H 167.71115963069755 167.5879437816032 181.6377565530859 H 0.0 **** 0.06
10138 H 168.25291060827647 165.9626591017251 181.15566188228087 H 0.0 **** 0.06
10139 H 169.23421923446796 166.93019315783712 182.28280248999909 H 0.0 **** 0.06
10140 H 169.1228023986911 167.40123294254516 180.57040870378333 H 0.0 **** 0.06
10141 C 173.55858181518488 31.382432174338305 186.6817503790671 C 0.0 **** -0.24
10142 H 173.75837228100607 31.96398497801016 187.58172884692473 H 0.0 **** 0.06
10143 H 173.60769620438302 32.03405705715079 185.8098433249203 H 0.0 **** 0.06
10144 H 172.56460047574365 30.93964570273897 186.75003203515095 H 0.0 **** 0.06
10145 H 174.30253429212843 30.591552993042683 186.5872677586075 H 0.0 **** 0.06
10146 C 69.56842030076582 98.32513632692032 90.69512167403131 C 0.0 **** -0.24
10147 H 68.62013430015604 97.78941449806216 90.6376330289621 H 0.0 **** 0.06
10148 H 69.37614761577117 99.39140077690676 90.81003232128889 H 0.0 **** 0.06
10149 H 70.13783093593067 98.15303307891612 89.78162009157104 H 0.0 **** 0.06
10150 H 70.13788277854097 97.96356883139991 91.55181274052684 H 0.0 **** 0.06
10151 C 206.35275798628714 74.9853559630734 11.04600629465071 C 0.0 **** -0.24
10152 H 205.8576815377794 75.95151734605878 10.943066278951392 H 0.0 **** 0.06
10153 H 207.18244510751913 75.07567261532785 11.746954449539686 H 0.0 **** 0.06
10154 H 206.7300128885754 74.66571888149167 10.074349966540012 H 0.0 **** 0.06
10155 H 205.6391721199916 74.25014465071172 11.419034024999632 H 0.0 **** 0.06
10156 C 143.31506717054776 33.74109905996134 198.8242029859035 C 0.0 **** -0.24
10157 H 142.25327952802974 33.86862368584201 198.61494095512262 H 0.0 **** 0.06
10158 H 143.77455735090558 33.15305496844873 198.03011542959905 H 0.0 **** 0.06
10159 H 143.43786561675626 33.22459820827825 199.77631671496513 H 0.0 **** 0.06
10160 H 143.79438116439326 34.71884009742837 198.87777260290707 H 0.0 **** 0.06
10161 C 210.2579292926115 213.8682972634418 74.70612272891832 C 0.0 **** -0.24
10162 H 210.0742081943653 213.69787595939965 73.64585990565935 H 0.0 **** 0.06
10163 H 210.0711492050555 212.9471441641067 75.25990548121585 H 0.0 **** 0.06
10164 H 209.5928317599589 214.65150747801965 75.06978488966105 H 0.0 **** 0.06
10165 H 211.29380663381687 214.17506174424375 74.85125654916912 H 0.0 **** 0.06
10166 C 89.08529925407585 2.923212068366034 18.650307059007872 C 0.0 **** -0.24
10167 H 88.25419528885958 2.8486742511025653 19.352482585807934 H 0.0 **** 0.06
10168 H 88.70579624938632 3.198810053492437 17.666885308377346 H 0.0 **** 0.06
10169 H 89.5945816297969 1.961838563118853 18.587620758531642 H 0.0 **** 0.06
10170 H 89.78533772188 3.6834457835242063 18.996067047125052 H 0.0 **** 0.06
10171 C 199.0208440439606 150.6102126654788 63.13850750704326 C 0.0 **** -0.24
10172 H 198.96015230566843 149.53179830299536 62.99066935438515 H 0.0 **** 0.06
10173 H 199.01661945629797 151.11022864714312 62.17018973878562 H 0.0 **** 0.06
10174 H 199.94234454996666 150.85232689863506 63.66881559444296 H 0.0 **** 0.06
10175 H 198.16592180815553 150.94529927765257 63.7252519646829 H 0.0 **** 0.06
10176 C 144.27441670570602 22.263877491602045 198.68144291082433 C 0.0 **** -0.24
10177 H 145.3063776410844 21.95995489309462 198.50267815366047 H 0.0 **** 0.06
10178 H 144.25359565601127 23.0577562289223 199.4280526957806 H 0.0 **** 0.06
10179 H 143.7021197772304 21.40949617984944 199.04190778426243 H 0.0 **** 0.06
10180 H 143.8373267256381 22.627564575316626 197.75041593729463 H 0.0 **** 0.06
10181 C 116.33454143472362 149.97370603025064 176.61859978114205 C 0.0 **** -0.24
10182 H 116.08030310513651 149.16612190544652 177.3054038995233 H 0.0 **** 0.06
10183 H 116.03278817258133 150.92736256060675 177.0512732389716 H 0.0 **** 0.06
10184 H 115.81345141619163 149.82190532777128 175.67246453504868 H 0.0 **** 0.06
10185 H 117.4105487410976 149.97636885490022 176.44405372586544 H 0.0 **** 0.06
10186 C 216.25302270216406 137.43132709183493 116.78316055453776 C 0.0 **** -0.24
10187 H 217.29515461922034 137.14162575091154 116.91569857743731 H 0.0 **** 0.06
10188 H 216.06165059266604 138.35707845894325 117.32531205512656 H 0.0 **** 0.06
10189 H 215.60468943140324 136.643095686525 117.16860756018032 H 0.0 **** 0.06
10190 H 216.0502535667721 137.58214110497363 115.72291013791569 H 0.0 **** 0.06
10191 C 147.25952742081972 18.082948070618727 54.26814626655545 C 0.0 **** -0.24
10192 H 146.34948111843778 18.68360980826091 54.266611337731945 H 0.0 **** 0.06
10193 H 147.60449306310937 17.949885004442876 55.293667630439245 H 0.0 **** 0.06
10194 H 148.03033814838386 18.589817186821335 53.688409565974155 H 0.0 **** 0.06
10195 H 147.05304146806543 17.108922844502445 53.82500685212477 H 0.0 **** 0.06
10196 C 134.66950685130655 64.52292162866792 167.4998648208415 C 0.0 **** -0.24
10197 H 134.63196824116977 63.531290708206086 167.04753625883725 H 0.0 **** 0.06
10198 H 135.7094758454573 64.83651488363063 167.59947369116725 H 0.0 **** 0.06
10199 H 134.20313328785278 64.4908695202277 168.48398040342715 H 0.0 **** 0.06
10200 H 134.13543007959373 65.23146273657164 166.86630531571058 H 0.0 **** 0.06
10201 C 14.293843657344993 106.66739834957811 93.54801515395019 C 0.0 **** -0.24
10202 H 15.00524128290914 107.39703821044013 93.93303489979746 H 0.0 **** 0.06
10203 H 14.81937510044331 105.938175612107 92.93134665282702 H 0.0 **** 0.06
10204 H 13.540088858913904 107.17678589458909 92.94631406869894 H 0.0 **** 0.06
10205 H 13.809275006606626 106.15782761004094 94.38139684075543 H 0.0 **** 0.06
10206 C 63.71074512128928 93.3463649107391 93.84819075292597 C 0.0 **** -0.24
10207 H 63.8240928511853 94.35512853815494 93.45079752528045 H 0.0 **** 0.06
10208 H 62.85147719116793 92.86574455075778 93.37948951971168 H 0.0 **** 0.06
10209 H 63.55737080202471 93.39532724421328 94.92565125029483 H 0.0 **** 0.06
10210 H 64.61129413467654 92.7696001376366 93.63500533019828 H 0.0 **** 0.06
10211 C 200.4378398938843 135.1428138960835 191.57209129341982 C 0.0 **** -0.24
10212 H 200.47441953981496 134.3236832825151 190.85436426108907 H 0.0 **** 0.06
10213 H 199.69336483980726 134.92240711027836 192.33692387249317 H 0.0 **** 0.06
10214 H 200.1668767911748 136.06483088985982 191.05597810095176 H 0.0 **** 0.06
10215 H 201.41521450038607 135.26174248982585 192.03868746583933 H 0.0 **** 0.06
10216 C 9.754012945525119 48.46224776917475 104.03774917673512 C 0.0 **** -0.24
10217 H 9.127869320283992 48.9845502810919 103.3141322963172 H 0.0 **** 0.06
10218 H 10.710300389712103 48.97743924999527 104.12951628785116 H 0.0 **** 0.06
10219 H 9.92356367411628 47.43964064494976 103.69867930300991 H 0.0 **** 0.06
10220 H 9.254852982912837 48.44589312310784 105.00610756995981 H 0.0 **** 0.06
10221 C 138.86020008341785 200.54941869821613 204.05777224027878 C 0.0 **** -0.24
10222 H 139.69235140683793 199.90219536810423 203.78034247151743 H 0.0 **** 0.06
10223 H 139.23014641563316 201.37479099740807 204.66692036151937 H 0.0 **** 0.06
10224 H 138.12971386322465 199.97622287891974 204.6278420213146 H 0.0 **** 0.06
10225 H 138.3912511434865 200.94388392460303 203.15674105257872 H 0.0 **** 0.06
10226 C 38.10532378823888 37.749142654692974 62.800773713643196 C 0.0 **** -0.24
10227 H 39.03747615919954 37.2815941865822 63.11989836810767 H 0.0 **** 0.06
10228 H 37.89404960434808 38.607686893236405 63.439029276360884 H 0.0 **** 0.06
10229 H 37.29275777225952 37.027851373932606 62.88058269907333 H 0.0 **** 0.06
10230 H 38.19924764198018 38.07847583225896 61.76642605038336 H 0.0 **** 0.06
10231 C 128.62283680746089 96.73320307458029 119.92611717794883 C 0.0 **** -0.24
10232 H 129.22564023833263 95.91512243203674 119.53299352443655 H 0.0 **** 0.06
10233 H 129.27694579162176 97.53769235682559 120.26294439660892 H 0.0 **** 0.06
10234 H 128.02604830480152 96.37490245101607 120.76599890414785 H 0.0 **** 0.06
10235 H 127.96086178811588 97.10651903817687 119.14441492596369 H 0.0 **** 0.06
10236 C 51.56885544148713 12.905393238089289 48.19382220787185 C 0.0 **** -0.24
10237 H 50.599330129614074 12.730128326379742 47.72744358617186 H 0.0 **** 0.06
10238 H 52.03784843170651 11.948226609046216 48.425223985275295 H 0.0 **** 0.06
10239 H 51.43159810226672 13.473952910563398 49.11376919732618 H 0.0 **** 0.06
10240 H 52.20559896799287 13.466276856848793 47.510846105085704 H 0.0 **** 0.06
10241 C 129.43875967286658 108.36793509830461 167.96102883305394 C 0.0 **** -0.24
10242 H 129.6279173875833 107.40913164299842 168.44286429799078 H 0.0 **** 0.06
10243 H 129.2109713105295 108.20708130188687 166.9075780060323 H 0.0 **** 0.06
10244 H 130.32315703580474 108.9989477591627 168.04900873120866 H 0.0 **** 0.06
10245 H 128.5943068009534 108.85809681997829 168.44565030629644 H 0.0 **** 0.06
10246 C 88.61052118389301 108.34073697887983 124.87544281754792 C 0.0 **** -0.24
10247 H 88.96950395339202 109.3642896890202 124.77284973951687 H 0.0 **** 0.06
10248 H 87.79066076119739 108.17192251558804 124.17694964740788 H 0.0 **** 0.06
10249 H 88.26002233217963 108.17941008634732 125.89522972561927 H 0.0 **** 0.06
10250 H 89.42332812655876 107.64779043554005 124.65806043924879 H 0.0 **** 0.06
10251 C 10.371161442778899 84.25960255790699 5.037389516520463 C 0.0 **** -0.24
10252 H 11.067438752667528 83.99977760615752 4.239044312147172 H 0.0 **** 0.06
10253 H 9.663098472436587 85.00562126912826 4.673003604628434 H 0.0 **** 0.06
10254 H 10.924619144411537 84.66672607993996 5.883801445393786 H 0.0 **** 0.06
10255 H 9.830441243636031 83.36745241504218 5.352055867296883 H 0.0 **** 0.06
10256 C 122.69404433487921 9.648912369186505 164.1578034979495 C 0.0 **** -0.24
10257 H 122.96550505157091 9.664460807196761 165.21371517761014 H 0.0 **** 0.06
10258 H 121.63702893661139 9.401601223135742 164.05928556896015 H 0.0 **** 0.06
10259 H 123.29363957009826 8.901516204495394 163.64022004760392 H 0.0 **** 0.06
10260 H 122.87984443686486 10.630173353137764 163.72193731688776 H 0.0 **** 0.06
10261 C 19.77311567143086 23.823637782414607 13.861065570400541 C 0.0 **** -0.24
10262 H 19.32694436573253 24.739643323614473 14.247208207938797 H 0.0 **** 0.06
10263 H 20.043543830126126 23.17218408742042 14.692910420373607 H 0.0 **** 0.06
10264 H 20.666584675768178 24.069563949659994 13.287220125545673 H 0.0 **** 0.06
10265 H 19.057253725842628 23.313295746855488 13.217635855485696 H 0.0 **** 0.06
10266 C 214.94804805742498 97.6061156150248 64.96808351479672 C 0.0 **** -0.24
10267 H 214.61518577011967 97.54143018034029 63.93251911961751 H 0.0 **** 0.06
10268 H 215.80124608093533 98.2813760359731 65.03395942817028 H 0.0 **** 0.06
10269 H 215.23996921214425 96.61488706882903 65.31695335920854 H 0.0 **** 0.06
10270 H 214.1350628943737 97.9836750862143 65.58795535706939 H 0.0 **** 0.06
10271 C 88.12123600718644 13.640960747536568 159.04666658511007 C 0.0 **** -0.24
10272 H 87.38701961363455 13.86851160682599 159.82011732503497 H 0.0 **** 0.06
10273 H 89.07331373553825 13.38529499831155 159.51363145586697 H 0.0 **** 0.06
10274 H 88.25331285089635 14.511072749825757 158.40383383710594 H 0.0 **** 0.06
10275 H 87.7717285534207 12.798029820063945 158.45106930805463 H 0.0 **** 0.06
10276 C 21.919363296694556 17.56459578021679 215.41577911997965 C 0.0 **** -0.24
10277 H 22.632186619791383 17.347759450180092 214.62085394444603 H 0.0 **** 0.06
10278 H 21.255325112209164 18.367918886199618 215.0997294708523 H 0.0 **** 0.06
10279 H 22.458418405258186 17.86983914610937 216.31285839239385 H 0.0 **** 0.06
10280 H 21.333361252546737 16.670178566336745 215.63151882264282 H 0.0 **** 0.06
10281 C 26.61913652688486 31.78870886874418 41.97969533518115 C 0.0 **** -0.24
10282 H 26.820530173170937 31.149266331451088 42.83894149980729 H 0.0 **** 0.06
10283 H 25.726387570233612 32.3845617246331 42.17168446175968 H 0.0 **** 0.06
10284 H 26.461266265497613 31.17214491547054 41.09564613769321 H 0.0 **** 0.06
10285 H 27.46898492449941 32.451387639526956 41.81362095689026 H 0.0 **** 0.06
10286 C 81.31318992957749 60.32277058372999 107.57190059536016 C 0.0 **** -0.24
10287 H 82.09463397288444 59.8558911075671 108.17111248736687 H 0.0 **** 0.06
10288 H 80.97795312987064 59.62429277244112 106.80490504173078 H 0.0 **** 0.06
10289 H 81.70670514133606 61.22178353778901 107.09899087901435 H 0.0 **** 0.06
10290 H 80.47354317775127 60.587473340025625 108.21441045214833 H 0.0 **** 0.06
10291 C 143.13733262930657 25.066234530641424 48.066791873386165 C 0.0 **** -0.24
10292 H 142.73337967054778 24.098034703431154 47.77004745882181 H 0.0 **** 0.06
10293 H 142.31615991005555 25.753460342676306 48.27334986737816 H 0.0 **** 0.06
10294 H 143.75222766179894 25.46512613588277 47.26074553295513 H 0.0 **** 0.06
10295 H 143.7458560856379 24.946872786077847 48.963027393954434 H 0.0 **** 0.06
10296 C 166.66406009008367 181.4429912889425 87.81089118347383 C 0.0 **** -0.24
10297 H 166.4811130781319 182.50380531144714 87.9823383724923 H 0.0 **** 0.06
10298 H 167.37936734787013 181.07459552001808 88.54707135303265 H 0.0 **** 0.06
10299 H 167.06876203419853 181.3026206111898 86.80814218147295 H 0.0 **** 0.06
10300 H 165.72817753611213 180.8925393558462 87.9057629248584 H 0.0 **** 0.06
10301 C 163.34390003749064 90.9213332489319 108.3145966218163 C 0.0 **** -0.24
10302 H 164.3389348716205 90.95340548457646 107.8715264514121 H 0.0 **** 0.06
10303 H 163.35323864790462 90.25727924108726 109.1800018641871 H 0.0 **** 0.06
10304 H 162.63039702207573 90.55084728260486 107.57885772459927 H 0.0 **** 0.06
10305 H 163.05492303418504 91.92384175357232 108.62955395228691 H 0.0 **** 0.06
10306 C 72.2950219152695 10.761996825570662 114.60119340745759 C 0.0 **** -0.24
10307 H 71.25453233143719 10.994785723299856 114.37414738560075 H 0.0 **** 0.06
10308 H 72.53861286732331 11.124604617005275 115.59942241947088 H 0.0 **** 0.06
10309 H 72.9432639274043 11.244789822596829 113.87063448848339 H 0.0 **** 0.06
10310 H 72.44229727214122 9.682791258708562 114.56081459218463 H 0.0 **** 0.06
10311 C 92.90523753177655 36.22898420667741 163.2847954812988 C 0.0 **** -0.24
10312 H 93.04129584273375 36.39688763064635 164.35287118203553 H 0.0 **** 0.06
10313 H 93.83652254893309 35.86233022841827 162.8530186701443 H 0.0 **** 0.06
10314 H 92.62556008501923 37.16604990177717 162.80314254725764 H 0.0 **** 0.06
10315 H 92.11677362163084 35.49174257455854 163.1306086151173 H 0.0 **** 0.06
10316 C 31.847602738539038 118.55625619450016 144.13595902890324 C 0.0 **** -0.24
10317 H 31.127389759505235 118.22262189378536 143.38888570220348 H 0.0 **** 0.06
10318 H 31.319583647286038 118.84594221960707 145.04507288401965 H 0.0 **** 0.06
10319 H 32.402255253097636 119.41146188869594 143.7493300697243 H 0.0 **** 0.06
10320 H 32.539772007009816 117.74504654477094 144.36045342836286 H 0.0 **** 0.06
10321 C 20.95296330469587 89.63848973689078 79.14101164928677 C 0.0 **** -0.24
10322 H 20.381466258874582 89.45509643159959 80.05113480947502 H 0.0 **** 0.06
10323 H 21.83522641212224 88.99786147397576 79.13124497095849 H 0.0 **** 0.06
10324 H 21.261507967714877 90.68323682150414 79.11027325382453 H 0.0 **** 0.06
10325 H 20.3328244347788 89.41632612828958 78.2728922793268 H 0.0 **** 0.06
10326 C 17.17375463359366 41.90049509258506 201.59442496833535 C 0.0 **** -0.24
10327 H 17.545628718996497 41.36076845299931 200.72251615148554 H 0.0 **** 0.06
10328 H 16.083887999914268 41.88223662420194 201.59512244563464 H 0.0 **** 0.06
10329 H 17.521074531995865 42.93374260062399 201.55736235328445 H 0.0 **** 0.06
10330 H 17.54642648190685 41.424807440753 202.50134893470192 H 0.0 **** 0.06
10331 C 85.46923949547569 77.70796894976716 64.65737328841101 C 0.0 **** -0.24
10332 H 85.49826982978293 76.93671038527184 63.88716382557149 H 0.0 **** 0.06
10333 H 85.99809996941373 77.35481245978305 65.5436239634576 H 0.0 **** 0.06
10334 H 84.4328546074595 77.92501546136133 64.91369201970605 H 0.0 **** 0.06
10335 H 85.94935585039501 78.6127048781252 64.28381428255346 H 0.0 **** 0.06
10336 C 107.10674820013075 28.65463748945774 100.75094335249482 C 0.0 **** -0.24
10337 H 108.15517779504522 28.914729592184642 100.89477870890308 H 0.0 **** 0.06
10338 H 106.55692318266294 29.53287692166316 100.41169403899507 H 0.0 **** 0.06
10339 H 106.68722107329587 28.3047354952665 101.69389441819477 H 0.0 **** 0.06
10340 H 107.02769707924794 27.864646064056046 100.0041544911045 H 0.0 **** 0.06
10341 C 166.8969022123286 35.442669792726676 13.783143963445184 C 0.0 **** -0.24
10342 H 166.0128612041419 35.9740833401373 14.136148611528256 H 0.0 **** 0.06
10343 H 167.04759383222773 34.5477463764786 14.387850728023324 H 0.0 **** 0.06
10344 H 167.76856991742108 36.09045330001909 13.869359131485709 H 0.0 **** 0.06
10345 H 166.7566016483549 35.157804494613515 12.740529151283909 H 0.0 **** 0.06
10346 C 151.10570507423705 198.07227314277333 185.41952251229424 C 0.0 **** -0.24
10347 H 150.48105340848622 198.7636703899695 184.85436300240798 H 0.0 **** 0.06
10348 H 151.4790389714666 198.5696498379744 186.31440426536187 H 0.0 **** 0.06
10349 H 151.94600921247218 197.75363277434755 184.8026405065968 H 0.0 **** 0.06
10350 H 150.51452100466952 197.20184393559342 185.7063945230018 H 0.0 **** 0.06
10351 C 100.79287564590284 177.02006884934832 118.75715667500857 C 0.0 **** -0.24
10352 H 101.69443033071032 176.6907392319742 119.2741646998707 H 0.0 **** 0.06
10353 H 100.90253539239622 176.84180897890602 117.6874107723787 H 0.0 **** 0.06
10354 H 100.6416954709815 178.08490821319896 118.93479344991006 H 0.0 **** 0.06
10355 H 99.93509157019484 176.4635771318365 119.1328594291801 H 0.0 **** 0.06
10356 C 14.617158567447575 147.4719358592858 5.455865289688717 C 0.0 **** -0.24
10357 H 14.346172450577086 146.6487422329908 6.117496551951092 H 0.0 **** 0.06
10358 H 15.316037657921186 147.11520767899185 4.698568005057126 H 0.0 **** 0.06
10359 H 15.086007283999606 148.26567684859083 6.038613333185992 H 0.0 **** 0.06
10360 H 13.720500162039855 147.85784165043913 4.971000814281126 H 0.0 **** 0.06
10361 C 27.60689226564631 149.27883969235643 53.20769264952969 C 0.0 **** -0.24
10362 H 27.69649405845078 149.8268008480223 54.14568424199378 H 0.0 **** 0.06
10363 H 27.590764494513394 148.20803125976022 53.411389328678666 H 0.0 **** 0.06
10364 H 28.456290575838295 149.5151036813363 52.56652186118559 H 0.0 **** 0.06
10365 H 26.682790436190032 149.5668252404144 52.705941437358035 H 0.0 **** 0.06
10366 C 149.79089040958814 74.14272853846455 105.7189733072996 C 0.0 **** -0.24
10367 H 149.03812257642426 73.41359111617948 106.01899055509456 H 0.0 **** 0.06
10368 H 149.4574712710064 74.65735222469954 104.81682348250153 H 0.0 **** 0.06
10369 H 150.73143141244475 73.63061018113575 105.51884702997971 H 0.0 **** 0.06
10370 H 149.93441707726294 74.8676222512234 106.5200128389729 H 0.0 **** 0.06
10371 C 210.98414517745465 79.320247475614 13.52581082420673 C 0.0 **** -0.24
10372 H 210.56129167011375 80.20654635099254 13.051735547452566 H 0.0 **** 0.06
10373 H 211.67932545177317 79.62494562810372 14.309169354474207 H 0.0 **** 0.06
10374 H 211.51216274451474 78.72711354133628 12.780342051169555 H 0.0 **** 0.06
10375 H 210.1819433951156 78.72574666187694 13.963494758935525 H 0.0 **** 0.06
10376 C 166.80481287428253 11.238074508452542 43.21200397069505 C 0.0 **** -0.24
10377 H 166.6960092162285 10.20175384031819 43.53361614803836 H 0.0 **** 0.06
10378 H 165.83055738865613 11.631987727933947 42.921107467664356 H 0.0 **** 0.06
10379 H 167.4856645714601 11.283843840030144 42.361486312331394 H 0.0 **** 0.06
10380 H 167.2078505147275 11.832074087507593 44.032396742969226 H 0.0 **** 0.06
10381 C 158.64082698901012 40.42960731164101 140.7981640352641 C 0.0 **** -0.24
10382 H 158.72680632791372 40.18069798471532 141.85669266794758 H 0.0 **** 0.06
10383 H 158.16670493036332 41.40602691794521 140.69294434995197 H 0.0 **** 0.06
10384 H 158.03497101786553 39.67578395877689 140.2955916245939 H 0.0 **** 0.06
10385 H 159.63310937889827 40.456929572566935 140.35008005167776 H 0.0 **** 0.06
10386 C 5.252303284132907 118.9339169025779 187.36395502371394 C 0.0 **** -0.24
10387 H 5.189644344617342 118.3469387744557 186.44760319596827 H 0.0 **** 0.06
10388 H 6.149788097913586 118.65104334581734 187.91594481704917 H 0.0 **** 0.06
10389 H 4.37219791700614 118.74354411350878 187.9784229932688 H 0.0 **** 0.06
10390 H 5.2984451762458775 119.99388309628996 187.11275840403823 H 0.0 **** 0.06
10391 C 100.49897255256316 39.70953550829404 136.2392221681876 C 0.0 **** -0.24
10392 H 101.46784011852056 39.23117351274084 136.09385509123916 H 0.0 **** 0.06
10393 H 100.33892801104004 39.88876613741604 137.30272029899118 H 0.0 **** 0.06
10394 H 99.71226268805195 39.05862108947264 135.8569812030737 H 0.0 **** 0.06
10395 H 100.47834833035957 40.65801840610189 135.7027485282092 H 0.0 **** 0.06
10396 C 23.251113564351755 32.059582537874974 33.31958490169745 C 0.0 **** -0.24
10397 H 22.74503078705584 31.750868348454617 32.4052168696075 H 0.0 **** 0.06
10398 H 23.82586683491985 31.222151768873175 33.71644449798026 H 0.0 **** 0.06
10399 H 22.511555499068322 32.37433846431793 34.05549502030422 H 0.0 **** 0.06
10400 H 23.921776552841635 32.89015964361349 33.1006443729359 H 0.0 **** 0.06
10401 C 151.41927923925408 70.0990033869062 107.22662349127653 C 0.0 **** -0.24
10402 H 151.86361605234123 69.45586324832601 106.46696719003545 H 0.0 **** 0.06
10403 H 152.17956554515519 70.77449926645356 107.6197649413735 H 0.0 **** 0.06
10404 H 151.0250973235175 69.48480128483516 108.0365874048645 H 0.0 **** 0.06
10405 H 150.61081321178176 70.67882907569243 106.7832997269417 H 0.0 **** 0.06
10406 C 98.2434581802117 9.369341233392475 143.17971224010222 C 0.0 **** -0.24
10407 H 98.93880329818894 9.69659956617619 143.95394496997977 H 0.0 **** 0.06
10408 H 97.27477196813574 9.842390210829421 143.33949276647917 H 0.0 **** 0.06
10409 H 98.13219060123042 8.286231325084259 143.22641964901322 H 0.0 **** 0.06
10410 H 98.63052443258955 9.653429827345178 142.2015029004658 H 0.0 **** 0.06
10411 C 48.26287753775223 134.0606000703977 162.01160136406844 C 0.0 **** -0.24
10412 H 48.356114167482914 132.992714842012 162.20753297372707 H 0.0 **** 0.06
10413 H 48.87391436956905 134.3272663548235 161.14822992035312 H 0.0 **** 0.06
10414 H 48.60217715124925 134.62085257101563 162.88296411717667 H 0.0 **** 0.06
10415 H 47.21952925481554 134.30286116551338 161.80715558825796 H 0.0 **** 0.06
10416 C 147.18122378173132 195.53376908794291 211.59770951870806 C 0.0 **** -0.24
10417 H 146.49912595575984 195.76186790789026 210.77838746431456 H 0.0 **** 0.06
10418 H 147.43589161506355 194.4746111957613 211.57325595798451 H 0.0 **** 0.06
10419 H 146.7006778589914 195.77048612756454 212.54687219812456 H 0.0 **** 0.06
10420 H 148.0885298346572 196.12903585492242 211.49039989481565 H 0.0 **** 0.06
10421 C 134.35319279715196 54.90214280308115 183.30191584082746 C 0.0 **** -0.24
10422 H 133.62674347959688 54.34381823274347 183.89258935812714 H 0.0 **** 0.06
10423 H 135.1522767761989 54.23311446230278 182.98161594870024 H 0.0 **** 0.06
10424 H 134.77246856488665 55.70557983763612 183.90772348538832 H 0.0 **** 0.06
10425 H 133.86050952845818 55.325153866157265 182.42649881294943 H 0.0 **** 0.06
10426 C 115.79336227590919 155.56394212282214 41.092123686180315 C 0.0 **** -0.24
10427 H 116.50146662502765 154.73885747506262 41.16747411579226 H 0.0 **** 0.06
10428 H 116.2628787527858 156.3997628663298 40.57480069716563 H 0.0 **** 0.06
10429 H 115.49343714614666 155.87636159223558 42.09233172764206 H 0.0 **** 0.06
10430 H 114.91493017542167 155.23858155512215 40.53466006827544 H 0.0 **** 0.06
10431 C 211.90066057694906 23.33900544031681 110.99936823768432 C 0.0 **** -0.24
10432 H 211.47118548794867 24.339085890831257 110.94634592596252 H 0.0 **** 0.06
10433 H 211.2115500040739 22.67441768820379 111.52128670747088 H 0.0 **** 0.06
10434 H 212.84688730760436 23.378170767370676 111.53820510829046 H 0.0 **** 0.06
10435 H 212.07333454281948 22.963319763116516 109.99027699846043 H 0.0 **** 0.06
10436 C 1.906157347564637 171.52624626779107 205.53470785758532 C 0.0 **** -0.24
10437 H 1.5054397303105702 172.24915543796857 206.24570565611688 H 0.0 **** 0.06
10438 H 1.407152361209988 170.56687893076602 205.6729159598261 H 0.0 **** 0.06
10439 H 2.976498845306935 171.408069726628 205.70268855618954 H 0.0 **** 0.06
10440 H 1.734648431469374 171.8825428465391 204.51872381020516 H 0.0 **** 0.06
10441 C 159.59792888838768 165.60634097409897 53.520631322227956 C 0.0 **** -0.24
10442 H 159.5384117490999 164.76273037489216 52.8336946535603 H 0.0 **** 0.06
10443 H 158.71721331263163 166.2371295615303 53.39852900709471 H 0.0 **** 0.06
10444 H 160.49375930233845 166.1882233613797 53.30471956492116 H 0.0 **** 0.06
10445 H 159.64266552130147 165.23820296084173 54.54538844756688 H 0.0 **** 0.06
10446 C 74.57868173446384 141.19833716933908 55.193076627412395 C 0.0 **** -0.24
10447 H 74.91552488019884 141.1541035567069 54.15758968315387 H 0.0 **** 0.06
10448 H 74.03853064830567 142.130019358722 55.35992455462376 H 0.0 **** 0.06
10449 H 75.44029953313351 141.15257419637595 55.85812898134263 H 0.0 **** 0.06
10450 H 73.91819447863001 140.3543376076421 55.395283166648326 H 0.0 **** 0.06
10451 C 175.200194198916 163.00451866423168 159.97424346562286 C 0.0 **** -0.24
10452 H 174.291464641153 162.40606843889748 159.91507384536382 H 0.0 **** 0.06
10453 H 176.00664285842515 162.492940481127 159.44899166275832 H 0.0 **** 0.06
10454 H 175.47586499427982 163.14292076628664 161.01908248956954 H 0.0 **** 0.06
10455 H 175.02474631709222 163.97636914837165 159.51189854052933 H 0.0 **** 0.06
10456 C 54.85200836285617 67.28594542233834 74.84205448293773 C 0.0 **** -0.24
10457 H 53.84886555631391 67.68619355138742 74.70093377986541 H 0.0 **** 0.06
10458 H 54.791691917158204 66.21583624251573 75.04239025088668 H 0.0 **** 0.06
10459 H 55.32797784490688 67.78759546446884 75.6855652720185 H 0.0 **** 0.06
10460 H 55.44118062542063 67.45438828795598 73.94038481530293 H 0.0 **** 0.06
10461 C 38.25443523740438 53.50866376682248 3.376858238129671 C 0.0 **** -0.24
10462 H 38.96162180235859 52.812520783106436 3.8275257881034577 H 0.0 **** 0.06
10463 H 38.573265138285336 53.741669344019584 2.3595612911620947 H 0.0 **** 0.06
10464 H 38.220080133253475 54.42417547448312 3.9660349085491475 H 0.0 **** 0.06
10465 H 37.26399145584077 53.053810548355955 3.351249469043694 H 0.0 **** 0.06
10466 C 202.99636928863606 63.468085201963106 125.76376225264318 C 0.0 **** -0.24
10467 H 204.06044668589976 63.366354153076884 125.55084391077861 H 0.0 **** 0.06
10468 H 202.58340317061717 64.28388771008787 125.17021242793999 H 0.0 **** 0.06
10469 H 202.85576216652777 63.68169632718161 126.8232810391604 H 0.0 **** 0.06
10470 H 202.4852381943429 62.538733358712335 125.509362333014 H 0.0 **** 0.06
10471 C 25.8995662823379 153.4963906929513 25.199662190576134 C 0.0 **** -0.24
10472 H 26.81810945235307 154.01071251926635 25.481379481777196 H 0.0 **** 0.06
10473 H 25.19400724890943 153.53247672964397 26.029330421956672 H 0.0 **** 0.06
10474 H 26.12569903628625 152.45688354604067 24.959505934086707 H 0.0 **** 0.06
10475 H 25.462749214778626 153.98359192741174 24.328762128271592 H 0.0 **** 0.06
10476 C 97.46687443512285 73.0196032943562 137.1184359076987 C 0.0 **** -0.24
10477 H 98.18019114816276 72.19887187566677 137.04226935360316 H 0.0 **** 0.06
10478 H 97.86200698549827 73.78286337773905 137.789463078658 H 0.0 **** 0.06
10479 H 96.52220333533397 72.6434698399524 137.51152912748455 H 0.0 **** 0.06
10480 H 97.30388609974877 73.45111650132542 136.130521284728 H 0.0 **** 0.06
10481 C 92.64975411718926 5.87945437978243 116.24704442357408 C 0.0 **** -0.24
10482 H 92.64546456013845 4.823549017494258 115.97808608379874 H 0.0 **** 0.06
10483 H 92.82417653071825 6.481278655658656 115.35450113682536 H 0.0 **** 0.06
10484 H 93.44223028328297 6.065474688926031 116.97203208523938 H 0.0 **** 0.06
10485 H 91.68784226808829 6.146834053385163 116.68378213806265 H 0.0 **** 0.06
10486 C 91.16736376190862 55.67790427567488 199.13426474913308 C 0.0 **** -0.24
10487 H 90.48974814617806 56.215290357905786 198.47221990079686 H 0.0 **** 0.06
10488 H 90.58872968682185 55.07931161453514 199.83830138286018 H 0.0 **** 0.06
10489 H 91.7811950494996 56.39223208124827 199.68286029382435 H 0.0 **** 0.06
10490 H 91.81011410214306 55.023625683559956 198.544419279506 H 0.0 **** 0.06
10491 C 203.39052653469417 19.92798100484292 84.7417148037926 C 0.0 **** -0.24
10492 H 203.05909502725035 18.89365628330792 84.6556936114809 H 0.0 **** 0.06
10493 H 202.840152827248 20.42030748187682 85.54415020767965 H 0.0 **** 0.06
10494 H 203.20475896243005 20.449104142061458 83.80116057037765 H 0.0 **** 0.06
10495 H 204.4576683364868 19.95059588333818 84.96418523004087 H 0.0 **** 0.06
10496 C 115.08080700443111 116.29003362782207 129.37847302966105 C 0.0 **** -0.24
10497 H 114.85508545571298 115.50949709628061 130.10566396548683 H 0.0 **** 0.06
10498 H 115.89583431755517 115.9599613955299 128.73371264698295 H 0.0 **** 0.06
10499 H 115.37670613005787 117.19825715484201 129.90265415642227 H 0.0 **** 0.06
10500 H 114.19622278842797 116.49037528803 128.773968174601 H 0.0 **** 0.06
10501 C 197.43823932090226 66.0707110942647 199.18467825737608 C 0.0 **** -0.24
10502 H 197.21042939110197 65.50272003243705 200.08625737957195 H 0.0 **** 0.06
10503 H 197.29346613840318 65.43573726276995 198.30921772849183 H 0.0 **** 0.06
10504 H 198.4729813280211 66.41032364225126 199.22093318431993 H 0.0 **** 0.06
10505 H 196.7749663553157 66.9338646976381 199.1214565733063 H 0.0 **** 0.06
10506 C 188.31547244309976 53.578842816375754 122.14969718775622 C 0.0 **** -0.24
10507 H 187.57667659392098 53.12796911507911 122.81055927406196 H 0.0 **** 0.06
10508 H 188.7262049500152 52.8151787178067 121.48928361449002 H 0.0 **** 0.06
10509 H 189.11852355529763 54.01362540980105 122.74525587758917 H 0.0 **** 0.06
10510 H 187.84237209668083 54.35977784302182 121.55390385750717 H 0.0 **** 0.06
10511 C 183.87828443507672 97.28327330199318 7.936883052839164 C 0.0 **** -0.24
10512 H 184.83187536144038 97.80994680000106 7.96462287864199 H 0.0 **** 0.06
10513 H 183.92329546616048 96.49041259897251 7.191237007723743 H 0.0 **** 0.06
10514 H 183.08468074722447 97.98320934081124 7.676744911149854 H 0.0 **** 0.06
10515 H 183.67494339582885 96.8504657393093 8.917017325763368 H 0.0 **** 0.06
10516 C 2.650188061223787 87.85212313110765 115.26915937974348 C 0.0 **** -0.24
10517 H 1.8798305068539989 87.27903926030018 115.78687096218306 H 0.0 **** 0.06
10518 H 3.03420838007483 87.26998390250998 114.43152434705058 H 0.0 **** 0.06
10519 H 3.4619857592139454 88.07498982385181 115.96035909279556 H 0.0 **** 0.06
10520 H 2.2213062869359277 88.7839836163788 114.89890727892669 H 0.0 **** 0.06
10521 C 187.92153986039847 27.149616587607994 30.11825510946653 C 0.0 **** -0.24
10522 H 186.9319473513811 27.60457905360994 30.169186145520143 H 0.0 **** 0.06
10523 H 188.32513788811963 27.04514497959113 31.12619731007902 H 0.0 **** 0.06
10524 H 188.58183793276046 27.783659434806793 29.52668325599791 H 0.0 **** 0.06
10525 H 187.84676596997778 26.167742034930484 29.65259929484978 H 0.0 **** 0.06
10526 C 206.96565521956884 51.31900169931079 157.2851173586809 C 0.0 **** -0.24
10527 H 207.1365135697875 50.95802057931823 158.29920275344568 H 0.0 **** 0.06
10528 H 207.90043658016128 51.70000820898862 156.87354477852392 H 0.0 **** 0.06
10529 H 206.22395796792873 52.11669634476175 157.3037333126772 H 0.0 **** 0.06
10530 H 206.60310329352095 50.4994021350449 156.66471926755457 H 0.0 **** 0.06
10531 C 121.15658364805024 60.586292481789144 23.268975503487525 C 0.0 **** -0.24
10532 H 121.03551271273882 59.98194702180126 24.167490676057398 H 0.0 **** 0.06
10533 H 121.31614415631368 59.933145476132836 22.41056151013784 H 0.0 **** 0.06
10534 H 122.0164870559506 61.245541167094416 23.388187244671812 H 0.0 **** 0.06
10535 H 120.25938703872815 61.18328466151581 23.109615234207013 H 0.0 **** 0.06
10536 C 114.28784762129924 197.76196001656143 2.8087054149319783 C 0.0 **** -0.24
10537 H 114.40517301004012 198.551038289652 3.5513004355157136 H 0.0 **** 0.06
10538 H 113.29108891078614 197.32946549605202 2.8933322031383852 H 0.0 **** 0.06
10539 H 115.03593946178405 196.9877503659406 2.9806593632742207 H 0.0 **** 0.06
10540 H 114.42025954297416 198.17980282206102 1.8108739640804927 H 0.0 **** 0.06
10541 C 199.67949967595388 37.50004014963872 29.782842496755762 C 0.0 **** -0.24
10542 H 199.19917634958 36.65112326593594 29.297747929297486 H 0.0 **** 0.06
10543 H 198.91824335345962 38.20289345784113 30.122547058119892 H 0.0 **** 0.06
10544 H 200.34195705159436 37.9971959151316 29.074131335524925 H 0.0 **** 0.06
10545 H 200.259165715102 37.150112514635396 30.637533718483922 H 0.0 **** 0.06
10546 C 128.16771593441126 34.7144404007698 149.710544553053 C 0.0 **** -0.24
10547 H 129.01316997263405 34.512479999769084 149.05364685533453 H 0.0 **** 0.06
10548 H 127.77349736103734 35.70911213229954 149.50070172704892 H 0.0 **** 0.06
10549 H 128.49396309490908 34.6640632398549 150.7491566373257 H 0.0 **** 0.06
10550 H 127.38811632237277 33.971958040446054 149.53796837089868 H 0.0 **** 0.06
10551 C 137.60178421430322 31.79173625430019 180.71692560394257 C 0.0 **** -0.24
10552 H 137.28149858562313 32.6561643463736 181.2984996107707 H 0.0 **** 0.06
10553 H 138.68653586561226 31.80835233258682 180.60945046939685 H 0.0 **** 0.06
10554 H 137.13732929768526 31.824318877037854 179.73180372049114 H 0.0 **** 0.06
10555 H 137.30111493484907 30.878195518163693 181.23008391056248 H 0.0 **** 0.06
10556 C 19.85047557930315 28.507089888454146 166.02657281331273 C 0.0 **** -0.24
10557 H 18.959952594973373 29.08872173721113 165.78649291375035 H 0.0 **** 0.06
10558 H 20.5289429261764 29.11359190722331 166.6264515474499 H 0.0 **** 0.06
10559 H 20.347769273830153 28.208015898604742 165.10444763255333 H 0.0 **** 0.06
10560 H 19.563034280893845 27.61887420602568 166.58955731121176 H 0.0 **** 0.06
10561 C 203.83266510720037 105.63820610717029 16.06408210857154 C 0.0 **** -0.24
10562 H 203.44257548425557 104.66781365646146 15.758085860985375 H 0.0 **** 0.06
10563 H 203.09202196206354 106.4106755313151 15.852639708325057 H 0.0 **** 0.06
10564 H 204.74845985329813 105.85197795341598 15.513562620835785 H 0.0 **** 0.06
10565 H 204.0469753772254 105.62343728531859 17.1327032419253 H 0.0 **** 0.06
10566 C 114.3605068548426 108.48244254413272 194.5153203780392 C 0.0 **** -0.24
10567 H 113.56566291106414 109.08416838767737 194.95425342985087 H 0.0 **** 0.06
10568 H 114.91951205084486 109.08464503462669 193.79911406162665 H 0.0 **** 0.06
10569 H 113.92583551909253 107.62192328463384 194.00571210883822 H 0.0 **** 0.06
10570 H 115.0325125520519 108.13665619864433 195.30186745984514 H 0.0 **** 0.06
10571 C 14.451020750633461 0.3593946605514873 8.962135020387763 C 0.0 **** -0.24
10572 H 15.217593147135005 -0.41152230237042886 9.033289186332013 H 0.0 **** 0.06
10573 H 14.586120263747944 0.9215861838213755 8.038291990319678 H 0.0 **** 0.06
10574 H 14.534424663612583 1.0349123976694727 9.813978741163027 H 0.0 **** 0.06
10575 H 13.465944928038255 -0.10739763691449866 8.962980163736376 H 0.0 **** 0.06
10576 C 89.53459524139227 133.91432814463172 166.43878958242962 C 0.0 **** -0.24
10577 H 88.81985592105211 134.5034897006774 167.01395435269114 H 0.0 **** 0.06
10578 H 89.98112089310486 134.5380950591919 165.66454749351297 H 0.0 **** 0.06
10579 H 89.01997395850394 133.07206870358112 165.97593635295533 H 0.0 **** 0.06
10580 H 90.31580719096654 133.54261446880906 167.102228334977 H 0.0 **** 0.06
10581 C 205.5940829062934 162.54946587723325 210.7792871908398 C 0.0 **** -0.24
10582 H 205.09560481370184 163.29214264824466 211.40186082821123 H 0.0 **** 0.06
10583 H 206.48203593609713 162.1806530657581 211.29347555776087 H 0.0 **** 0.06
10584 H 205.88538407419813 163.0060066411582 209.83339962078074 H 0.0 **** 0.06
10585 H 204.91360733463506 161.720008841585 210.5883051257632 H 0.0 **** 0.06
10586 C 112.35495060229216 156.82976748790458 157.21789393890054 C 0.0 **** -0.24
10587 H 111.57362436802423 156.31726445568307 156.65567057288212 H 0.0 **** 0.06
10588 H 112.11428877027508 157.89078349140766 157.28826487352438 H 0.0 **** 0.06
10589 H 113.30982173947122 156.70618318146148 156.70686246336885 H 0.0 **** 0.06
10590 H 112.42036599342144 156.40388371075943 158.21828933251885 H 0.0 **** 0.06
10591 C 90.25780973771425 116.60061974635313 8.57464272246348 C 0.0 **** -0.24
10592 H 90.18775205069677 116.49269028638271 7.491500849577932 H 0.0 **** 0.06
10593 H 91.18547492474572 116.14941150009314 8.925765983861439 H 0.0 **** 0.06
10594 H 89.40909094378621 116.10293156220415 9.044506562837228 H 0.0 **** 0.06
10595 H 90.24783205982926 117.65970830919925 8.834875353306984 H 0.0 **** 0.06
10596 C 130.19640165859863 107.0636375187097 52.89984749529833 C 0.0 **** -0.24
10597 H 130.91679527042567 106.577555815994 52.24210609096184 H 0.0 **** 0.06
10598 H 130.54771113325364 108.06650404977768 53.145834358961736 H 0.0 **** 0.06
10599 H 130.0906952003989 106.48049912786712 53.815457086374806 H 0.0 **** 0.06
10600 H 129.23165437016854 107.12946801593432 52.39777166871613 H 0.0 **** 0.06
10601 C 93.36120571546287 78.2903038092449 206.80565430263334 C 0.0 **** -0.24
10602 H 92.39454812394872 77.82030693930119 206.9898422476967 H 0.0 **** 0.06
10603 H 94.13105869163185 77.77403106423998 207.3816091902072 H 0.0 **** 0.06
10604 H 93.31943870518991 79.3361992826296 207.1096400117765 H 0.0 **** 0.06
10605 H 93.59882412777846 78.22843173689893 205.74398464492026 H 0.0 **** 0.06
10606 C 12.881965165037002 169.17912565464783 182.44237265843594 C 0.0 **** -0.24
10607 H 13.527331539989575 170.04681124244104 182.30415867267072 H 0.0 **** 0.06
10608 H 13.412496109665994 168.42019601109774 183.01758379621702 H 0.0 **** 0.06
10609 H 12.60787502764822 168.7719579576465 181.4688865476142 H 0.0 **** 0.06
10610 H 11.980759635855236 169.4777788407137 182.9781002102802 H 0.0 **** 0.06
10611 C 128.94101108630628 200.5285358847039 23.86466611762691 C 0.0 **** -0.24
10612 H 128.89421592126553 200.66645178328645 22.78421687669976 H 0.0 **** 0.06
10613 H 129.06348545402017 201.49761581758762 24.348402874390374 H 0.0 **** 0.06
10614 H 129.78633611324403 199.88720265329147 24.113011466995957 H 0.0 **** 0.06
10615 H 128.01854452735284 200.06349178736076 24.211168004721188 H 0.0 **** 0.06
10616 C 0.9037336751303187 185.2605863228521 117.47906741311188 C 0.0 **** -0.24
10617 H -0.13906517843974342 185.0136184481084 117.67672253224457 H 0.0 **** 0.06
10618 H 1.20126622896872 184.83610779397742 116.5193166517909 H 0.0 **** 0.06
10619 H 1.5310527263436455 184.847504797959 118.2685638271124 H 0.0 **** 0.06
10620 H 1.0220276540916302 186.3434497110634 117.44990335309781 H 0.0 **** 0.06
10621 C 169.438009420216 61.63061834732741 143.71835851492074 C 0.0 **** -0.24
10622 H 170.16312588350092 61.04749056322103 144.28705989371235 H 0.0 **** 0.06
10623 H 169.4281742792469 62.6563091813824 144.08859457262304 H 0.0 **** 0.06
10624 H 168.44761642552842 61.191653911364284 143.83415600030293 H 0.0 **** 0.06
10625 H 169.71678474575688 61.626763387785886 142.66433925336685 H 0.0 **** 0.06
10626 C 150.3182776896778 139.18289556820815 143.3171561843755 C 0.0 **** -0.24
10627 H 151.12585964197888 139.89354773849084 143.49709796699597 H 0.0 **** 0.06
10628 H 149.8907084247428 139.36170436812625 142.33019058885128 H 0.0 **** 0.06
10629 H 149.54634301034633 139.31024537329318 144.0759703982785 H 0.0 **** 0.06
10630 H 150.71114695385273 138.1670127646221 143.3648742777471 H 0.0 **** 0.06
10631 C 141.62308066139076 11.502498538310704 116.38816517445905 C 0.0 **** -0.24
10632 H 141.13801493359045 11.574948288534017 117.36124708190765 H 0.0 **** 0.06
10633 H 141.63595217335086 10.461317565749681 116.06529422588646 H 0.0 **** 0.06
10634 H 142.64570937923912 11.872430764855551 116.46304368908245 H 0.0 **** 0.06
10635 H 141.0718174886947 12.10085874082904 115.66201702289182 H 0.0 **** 0.06
10636 C 66.57830227860221 127.84606476751792 165.21790785838724 C 0.0 **** -0.24
10637 H 65.50298376431805 127.88404472585368 165.39351754076665 H 0.0 **** 0.06
10638 H 67.09806418838893 127.76319118703704 166.17204917478205 H 0.0 **** 0.06
10639 H 66.89479926746132 128.75659119262718 164.70907839535272 H 0.0 **** 0.06
10640 H 66.81472126271004 126.98194157895678 164.59830856162458 H 0.0 **** 0.06
10641 C 88.59647788477048 147.55820126700064 160.9321914137742 C 0.0 **** -0.24
10642 H 89.4450379621607 146.8743240166478 160.9430925182962 H 0.0 **** 0.06
10643 H 87.71776641944109 147.04122612059325 160.5464700160804 H 0.0 **** 0.06
10644 H 88.82671920914277 148.41116067538775 160.29448042750914 H 0.0 **** 0.06
10645 H 88.39711490535012 147.90586884509906 161.94591464858252 H 0.0 **** 0.06
10646 C 204.91727922637247 71.7184233692135 43.07951162556131 C 0.0 **** -0.24
10647 H 205.8534242277834 72.27597074306658 43.054063736977724 H 0.0 **** 0.06
10648 H 204.8110504208753 71.14564691065289 42.15892937259278 H 0.0 **** 0.06
10649 H 204.0834833686165 72.41387113016413 43.17409498068763 H 0.0 **** 0.06
10650 H 204.9223717406952 71.03980737006276 43.93193846287453 H 0.0 **** 0.06
10651 C 173.6520034049165 195.47840753575417 66.44754156244646 C 0.0 **** -0.24
10652 H 173.09083424923392 195.75040531055487 65.55381480439597 H 0.0 **** 0.06
10653 H 174.50468899372112 196.1482555314041 66.5585419490224 H 0.0 **** 0.06
10654 H 174.00424634421205 194.45134505568655 66.35597903142711 H 0.0 **** 0.06
10655 H 173.0054298352298 195.56464389171322 67.32162855503688 H 0.0 **** 0.06
10656 C 116.4266615100707 36.61336065699743 211.67322886523598 C 0.0 **** -0.24
10657 H 115.369484514706 36.832592303936906 211.52072497557748 H 0.0 **** 0.06
10658 H 116.53411691072121 35.604605706577786 212.07221749578787 H 0.0 **** 0.06
10659 H 116.84814345841527 37.32976074361301 212.37898309611157 H 0.0 **** 0.06
10660 H 116.95417811186728 36.68656477227765 210.72285288294313 H 0.0 **** 0.06
10661 C 150.3555489398709 187.66101903642567 158.29254789406025 C 0.0 **** -0.24
10662 H 150.02503685500625 187.23975898157516 157.34369498329784 H 0.0 **** 0.06
10663 H 150.80873303184228 188.6374828930805 158.1182244261181 H 0.0 **** 0.06
10664 H 151.08934793121375 186.9960299684668 158.7486824433968 H 0.0 **** 0.06
10665 H 149.50005409474318 187.77059519727516 158.95964817522537 H 0.0 **** 0.06
10666 C 128.6203797216615 75.62285502438749 36.42179528016199 C 0.0 **** -0.24
10667 H 128.01719563584027 76.46486060146486 36.0831779553578 H 0.0 **** 0.06
10668 H 129.0829797134267 75.86919624596891 37.37858753622554 H 0.0 **** 0.06
10669 H 129.3967435324406 75.41235854543038 35.68617200441406 H 0.0 **** 0.06
10670 H 127.98447902939921 74.74544776439842 36.54143203680421 H 0.0 **** 0.06
10671 C 124.68333744376469 37.408439127076065 38.17734430968129 C 0.0 **** -0.24
10672 H 123.93312960949294 38.094146213253765 38.57247359421038 H 0.0 **** 0.06
10673 H 124.87351013965315 36.61933407669446 38.904157686720154 H 0.0 **** 0.06
10674 H 125.60654890578144 37.95345543195617 37.981768359815135 H 0.0 **** 0.06
10675 H 124.31892157685542 36.96860318248383 37.24890715135922 H 0.0 **** 0.06
10676 C 43.828597265602056 211.49310138603445 73.81117842629742 C 0.0 **** -0.24
10677 H 44.1655876896215 210.48604669329282 74.05685186030566 H 0.0 **** 0.06
10678 H 42.85454248096241 211.44037906853112 73.32373941644333 H 0.0 **** 0.06
10679 H 44.5457164213085 211.9622358737904 73.13911589185626 H 0.0 **** 0.06
10680 H 43.7464406478378 212.08181245800216 74.72408350199443 H 0.0 **** 0.06
10681 C 76.15392605797837 16.89015795284807 47.951386405228604 C 0.0 **** -0.24
10682 H 75.62767214792524 16.87841331035753 48.90647438130486 H 0.0 **** 0.06
10683 H 77.1859092815721 17.204452062176557 48.10937370332974 H 0.0 **** 0.06
10684 H 75.66140163086777 17.587530385161813 47.2732444381015 H 0.0 **** 0.06
10685 H 76.14092011809987 15.890059174016912 47.51741702286296 H 0.0 **** 0.06
10686 C 189.49461108643771 61.828614525411524 113.1633592298964 C 0.0 **** -0.24
10687 H 190.39489716103446 61.96470903366986 113.76331041141964 H 0.0 **** 0.06
10688 H 189.06662765395598 60.848212514210815 113.36761441417588 H 0.0 **** 0.06
10689 H 189.74880365593756 61.90154468908389 112.10565961518193 H 0.0 **** 0.06
10690 H 188.77018242270998 62.603094347648494 113.41652965292025 H 0.0 **** 0.06
10691 C 192.47699426838446 194.0174623406536 167.48184786253938 C 0.0 **** -0.24
10692 H 193.1434657295974 194.54833988612543 168.1626635379433 H 0.0 **** 0.06
10693 H 192.77008902055002 192.96902418940292 167.4313103638426 H 0.0 **** 0.06
10694 H 192.54257047674201 194.46240188160007 166.48936073975358 H 0.0 **** 0.06
10695 H 191.45204427011637 194.09169206520886 167.84589400452433 H 0.0 **** 0.06
10696 C 187.63852864918823 177.19798139081155 189.58559792731398 C 0.0 **** -0.24
10697 H 187.5053638546408 178.22210531411554 189.93567574875922 H 0.0 **** 0.06
10698 H 188.5325472638317 177.1407500709186 188.96513324701215 H 0.0 **** 0.06
10699 H 186.76962725267012 176.89907476100885 188.99887879992534 H 0.0 **** 0.06
10700 H 187.7455550859384 176.5328074014236 190.4416791267505 H 0.0 **** 0.06
10701 C 52.16357065929816 132.31172009274883 50.07293376471816 C 0.0 **** -0.24
10702 H 52.20161284083258 133.36968093558215 50.32937236706255 H 0.0 **** 0.06
10703 H 52.080737478706624 132.20242362283824 48.991056182806915 H 0.0 **** 0.06
10704 H 51.298422807315376 131.85290005750204 50.551629395434475 H 0.0 **** 0.06
10705 H 53.07329203794461 131.82090252859427 50.41960259559437 H 0.0 **** 0.06
10706 C 27.30145084026384 186.2655264609313 195.5761969551351 C 0.0 **** -0.24
10707 H 26.971028059020682 187.12043668584158 194.9854639823584 H 0.0 **** 0.06
10708 H 28.05005330926531 185.7045670424094 195.01664712526954 H 0.0 **** 0.06
10709 H 26.447826873633602 185.62136913880335 195.78958069930533 H 0.0 **** 0.06
10710 H 27.73427956562375 186.61738152048002 196.51243166985242 H 0.0 **** 0.06
10711 C 186.6066629029801 44.49970886925203 54.651386487678366 C 0.0 **** -0.24
10712 H 185.53038650539864 44.65152670616254 54.73253816921331 H 0.0 **** 0.06
10713 H 186.9118334906895 43.6991694725175 55.32662033928953 H 0.0 **** 0.06
10714 H 187.12327626641496 45.41975400411019 54.92228443233695 H 0.0 **** 0.06
10715 H 186.85868439511358 44.22865301674267 53.627392842332895 H 0.0 **** 0.06
10716 C 196.56149721601287 163.84594041949558 24.477503496502578 C 0.0 **** -0.24
10717 H 195.47144673812883 163.85340795522745 24.442100781260393 H 0.0 **** 0.06
10718 H 196.89016168656156 163.72950902407243 25.509864634767908 H 0.0 **** 0.06
10719 H 196.94324902277384 164.7849755174732 24.076693341181553 H 0.0 **** 0.06
10720 H 196.9379011817835 163.01527095920184 23.87956415347344 H 0.0 **** 0.06
10721 C 100.3772106521677 98.32605654782058 142.3367396592934 C 0.0 **** -0.24
10722 H 99.90086651312409 99.29975076835272 142.45213881929453 H 0.0 **** 0.06
10723 H 100.16094775123177 97.70989559412762 143.2093983388586 H 0.0 **** 0.06
10724 H 101.4548646821104 98.45804705835904 142.2421382487854 H 0.0 **** 0.06
10725 H 99.99140138377525 97.83724859615803 141.4413067156549 H 0.0 **** 0.06
10726 C 55.14690468063068 167.26662090124387 32.372874788589755 C 0.0 **** -0.24
10727 H 55.66688994781805 166.95848201394512 33.27938395434367 H 0.0 **** 0.06
10728 H 55.04980044353219 166.4138439577328 31.70128236643683 H 0.0 **** 0.06
10729 H 55.71470458623247 168.05594328153268 31.87925995854657 H 0.0 **** 0.06
10730 H 54.15603154554978 167.6406540745885 32.63167734336015 H 0.0 **** 0.06
10731 C 148.124648888305 13.24045545137318 152.2833827099845 C 0.0 **** -0.24
10732 H 149.04735319975208 13.467699972612962 152.81647069772424 H 0.0 **** 0.06
10733 H 147.30982790781889 13.835176323890096 152.6962846237738 H 0.0 **** 0.06
10734 H 147.89416469878734 12.180979482094358 152.39266141911912 H 0.0 **** 0.06
10735 H 148.24872309005008 13.477634418609853 151.22618552536898 H 0.0 **** 0.06
10736 C 110.30125761541899 130.84428370588057 106.43949367853806 C 0.0 **** -0.24
10737 H 109.92305564604237 130.06995763201314 105.77289370913486 H 0.0 **** 0.06
10738 H 111.2686079901813 130.53968033091707 106.8387619727226 H 0.0 **** 0.06
10739 H 109.59928145979399 130.99062490099243 107.26065132157045 H 0.0 **** 0.06
10740 H 110.4135867058726 131.7769809992206 105.88698660521472 H 0.0 **** 0.06
10741 C 99.5232077119879 79.25063467096163 89.72388034864555 C 0.0 **** -0.24
10742 H 99.52576858792254 78.17846374802252 89.52614036787024 H 0.0 **** 0.06
10743 H 99.00071207012662 79.7667568963372 88.9181829509506 H 0.0 **** 0.06
10744 H 100.54978442362669 79.61240602600128 89.78273508629321 H 0.0 **** 0.06
10745 H 99.01486252102659 79.4437250302534 90.66929371876965 H 0.0 **** 0.06
10746 C 25.675025122342916 187.2172701576412 123.02931675244626 C 0.0 **** -0.24
10747 H 24.918351722989442 187.79707744967686 123.55750138003783 H 0.0 **** 0.06
10748 H 26.04853216689584 186.4273787470737 123.68157528782258 H 0.0 **** 0.06
10749 H 26.499096203449724 187.8718288239699 122.74334304223323 H 0.0 **** 0.06
10750 H 25.23583037609076 186.77479928001136 122.13587754707304 H 0.0 **** 0.06
10751 C 15.398703204990056 202.75241198917553 81.3105878943831 C 0.0 **** -0.24
10752 H 16.15538940338911 202.27250814144872 80.6901900984476 H 0.0 **** 0.06
10753 H 14.409898651999356 202.40294606176815 81.01382830270165 H 0.0 **** 0.06
10754 H 15.457189525042907 203.83333295647438 81.1823094774353 H 0.0 **** 0.06
10755 H 15.574317044764257 202.50127951913893 82.35697090775903 H 0.0 **** 0.06
10756 C 75.15019259313328 211.37598773625137 20.672244602605645 C 0.0 **** -0.24
10757 H 74.34226671415922 212.03037961063905 20.34515412111037 H 0.0 **** 0.06
10758 H 76.10679051678682 211.79886155281764 20.36571682198067 H 0.0 **** 0.06
10759 H 75.02588177449451 210.39252737852374 20.22087152775343 H 0.0 **** 0.06
10760 H 75.12560960922093 211.28333523202593 21.75850946208962 H 0.0 **** 0.06
10761 C 178.2475144144912 145.7398962752104 46.267214926830036 C 0.0 **** -0.24
10762 H 178.10865244660846 145.22798663300733 47.21956150873817 H 0.0 **** 0.06
10763 H 178.9621742833565 146.55324094240717 46.39317468775846 H 0.0 **** 0.06
10764 H 177.2935092255232 146.1431806715088 45.92854558821932 H 0.0 **** 0.06
10765 H 178.62578828602057 145.0343178690784 45.52707025280458 H 0.0 **** 0.06
10766 C 84.210131913922 157.33280355626846 9.578720799040752 C 0.0 **** -0.24
10767 H 83.45880565376262 156.98376595118373 10.28729877128842 H 0.0 **** 0.06
10768 H 84.77845040689004 158.14949972791754 10.025760640205618 H 0.0 **** 0.06
10769 H 83.71756431480406 157.68584345414962 8.672620842951773 H 0.0 **** 0.06
10770 H 84.88349194981731 156.51318022905292 9.33118701847556 H 0.0 **** 0.06
10771 C 69.24131710412344 202.73215030559933 150.41177612523967 C 0.0 **** -0.24
10772 H 69.46849669130349 203.7291385724356 150.78922541583495 H 0.0 **** 0.06
10773 H 69.99310158360008 202.44105176198966 149.67773056683603 H 0.0 **** 0.06
10774 H 68.25740172565355 202.73825619443355 149.94132165804615 H 0.0 **** 0.06
10775 H 69.24476613207388 202.0214510131628 151.2377959463886 H 0.0 **** 0.06
10776 C 33.47730989555326 55.53715877926872 33.411449160725354 C 0.0 **** -0.24
10777 H 32.449087689653965 55.90050366539387 33.41058584110769 H 0.0 **** 0.06
10778 H 33.50260844031972 54.51791905844195 33.02416046328386 H 0.0 **** 0.06
10779 H 33.865317960468104 55.5484092331872 34.430763308676816 H 0.0 **** 0.06
10780 H 34.09038103631892 56.18106683135987 32.78253557529223 H 0.0 **** 0.06
10781 C 112.80220279617232 164.93426773073332 96.5271245470794 C 0.0 **** -0.24
10782 H 112.87548051682587 164.0572019129414 97.17093436416171 H 0.0 **** 0.06
10783 H 113.63878707411034 165.60386783426952 96.72859810918634 H 0.0 **** 0.06
10784 H 111.86411911118368 165.45340139229234 96.72555940083451 H 0.0 **** 0.06
10785 H 112.83076005088814 164.6212291830354 95.4833120678632 H 0.0 **** 0.06
10786 C 71.65490567618019 215.43967343742324 31.68354417198975 C 0.0 **** -0.24
10787 H 70.74310270582686 215.86812868333186 31.268768855179587 H 0.0 **** 0.06
10788 H 72.51483553838392 215.80139572566466 31.120077447058804 H 0.0 **** 0.06
10789 H 71.60815205388712 214.35216990150946 31.61814300835107 H 0.0 **** 0.06
10790 H 71.75328093565395 215.73636054163643 32.727914418785645 H 0.0 **** 0.06
10791 C 139.88254160131544 106.83250544105185 128.5425597499352 C 0.0 **** -0.24
10792 H 140.39657415284944 106.79468367727527 129.50233741444669 H 0.0 **** 0.06
10793 H 139.22794603393373 107.70393513163232 128.5154104772481 H 0.0 **** 0.06
10794 H 139.2894294402072 105.92812709092583 128.41206500962778 H 0.0 **** 0.06
10795 H 140.6167773355756 106.9051533142622 127.74002481893778 H 0.0 **** 0.06
10796 C 177.3251943644416 156.4829568588068 178.44199490331735 C 0.0 **** -0.24
10797 H 177.1396151677398 157.54117931271173 178.62584194839343 H 0.0 **** 0.06
10798 H 177.85284760579395 156.05406275878585 179.29441619561538 H 0.0 **** 0.06
10799 H 177.9312168610872 156.37108554083966 177.54352083005244 H 0.0 **** 0.06
10800 H 176.37437265887058 155.9669676545343 178.30539191431336 H 0.0 **** 0.06
10801 C 67.65703781923293 93.3862452517104 7.597778776241938 C 0.0 **** -0.24
10802 H 68.49002733267781 93.91734332793844 7.13738064722763 H 0.0 **** 0.06
10803 H 66.84962015575218 93.27872836645302 6.873178210429302 H 0.0 **** 0.06
10804 H 67.29882178075388 93.94877700230988 8.4605148033517 H 0.0 **** 0.06
10805 H 67.98909425756045 92.39898859197534 7.920630079987973 H 0.0 **** 0.06
10806 C 118.57880990606161 1.6000667682775145 0.9369615732556156 C 0.0 **** -0.24
10807 H 117.77160908989701 2.2995830367259487 0.7191497893358303 H 0.0 **** 0.06
10808 H 118.90455665307694 1.7305257485535321 1.9686498197297055 H 0.0 **** 0.06
10809 H 119.41539588681037 1.7912881864150734 0.26447409193824 H 0.0 **** 0.06
10810 H 118.22430612223765 0.579389445912625 0.7944168365565929 H 0.0 **** 0.06
10811 C 203.3671959122658 125.86967568547534 184.44011674084908 C 0.0 **** -0.24
10812 H 203.08194462341552 126.70927729419121 185.07405599566314 H 0.0 **** 0.06
10813 H 203.57498195686628 124.99877250437025 185.06112296610334 H 0.0 **** 0.06
10814 H 204.25886005778509 126.13196824142274 183.86987659917597 H 0.0 **** 0.06
10815 H 202.55267229421733 125.63987458912631 183.75267664835454 H 0.0 **** 0.06
10816 C 147.86237188775925 165.25192700226683 47.77604772028931 C 0.0 **** -0.24
10817 H 147.79979447002046 164.3192180080338 47.21525173261469 H 0.0 **** 0.06
10818 H 148.37181740477365 166.00478492691389 47.17277051705608 H 0.0 **** 0.06
10819 H 148.42124197836728 165.08469419893095 48.69648866787969 H 0.0 **** 0.06
10820 H 146.8577186633799 165.59894450804165 48.01748484471477 H 0.0 **** 0.06
10821 C 1.907795820226461 90.14771512649394 188.76682901033124 C 0.0 **** -0.24
10822 H 1.9212639778496552 91.12298877837709 188.2796441796183 H 0.0 **** 0.06
10823 H 0.8830085566689192 89.77863543666537 188.81131932960074 H 0.0 **** 0.06
10824 H 2.3053263128910118 90.24144343219886 189.77780559863845 H 0.0 **** 0.06
10825 H 2.5214582388836675 89.45021788454575 188.19822533367343 H 0.0 **** 0.06
10826 C 88.52954090814443 79.19540398779446 119.11099680714572 C 0.0 **** -0.24
10827 H 89.1080101867994 78.3366708512711 118.77283146033712 H 0.0 **** 0.06
10828 H 87.99143370434432 79.62738704760625 118.26717608471454 H 0.0 **** 0.06
10829 H 89.20180710674684 79.94183288466729 119.53448140245352 H 0.0 **** 0.06
10830 H 87.81657594110915 78.87597673726964 119.87117857896773 H 0.0 **** 0.06
10831 C 96.01424160551723 136.90088377300384 72.38880065337503 C 0.0 **** -0.24
10832 H 95.69938415636683 137.94287786916072 72.33843980116467 H 0.0 **** 0.06
10833 H 95.93993254356458 136.54717973238513 73.41699944099054 H 0.0 **** 0.06
10834 H 97.04588562229658 136.81606295893272 72.04849905916882 H 0.0 **** 0.06
10835 H 95.37043342987018 136.29646947102083 71.7487471052736 H 0.0 **** 0.06
10836 C 183.73646561251655 20.603704724315435 9.664525864481504 C 0.0 **** -0.24
10837 H 184.28397537939654 21.428810271971642 9.20927975281353 H 0.0 **** 0.06
10838 H 182.67338413516848 20.8443143226918 9.692720592402907 H 0.0 **** 0.06
10839 H 184.09987392111313 20.44389902140533 10.679740953996145 H 0.0 **** 0.06
10840 H 183.88959791063905 19.69867098898429 9.076904754158619 H 0.0 **** 0.06
10841 C 190.04755763772312 77.7655906884903 55.97804859740657 C 0.0 **** -0.24
10842 H 189.85818723761076 77.56189991380802 54.92418947290817 H 0.0 **** 0.06
10843 H 190.66864729801972 76.97346835226176 56.39546561176304 H 0.0 **** 0.06
10844 H 189.10021980673798 77.80726199844725 56.516205344425885 H 0.0 **** 0.06
10845 H 190.56343069424383 78.72149688759185 56.07498406388916 H 0.0 **** 0.06
10846 C 209.2996628219525 207.81087678151493 40.28123323033779 C 0.0 **** -0.24
10847 H 209.40473482985897 206.89841080791425 39.6943330202856 H 0.0 **** 0.06
10848 H 209.87535105587068 207.7182914823394 41.20321001368819 H 0.0 **** 0.06
10849 H 208.2486432140925 207.96864571981797 40.5229952633822 H 0.0 **** 0.06
10850 H 209.6712672989181 208.65825775673565 39.703969205982474 H 0.0 **** 0.06
10851 C 170.64165607122737 23.352790341907237 212.26683937657356 C 0.0 **** -0.24
10852 H 170.53294641951436 22.983095723784473 211.24707212717323 H 0.0 **** 0.06
10853 H 171.62288609529293 23.073711078205946 212.65171410082843 H 0.0 **** 0.06
10854 H 169.86563539574794 22.915477212749465 212.89541020199957 H 0.0 **** 0.06
10855 H 170.54414975370415 24.43880070978446 212.27175363480288 H 0.0 **** 0.06
10856 C 91.66693253480021 150.37223896411172 172.1339195005367 C 0.0 **** -0.24
10857 H 91.60478744517458 151.0977557650749 171.32322752136372 H 0.0 **** 0.06
10858 H 92.10943501537476 150.84363316997604 173.01097490330596 H 0.0 **** 0.06
10859 H 92.28633230343333 149.5311212402829 171.82170475617932 H 0.0 **** 0.06
10860 H 90.66640783179149 150.01437560733444 172.37870979663626 H 0.0 **** 0.06
10861 C 81.5411455577601 97.39895826450862 56.14164507292611 C 0.0 **** -0.24
10862 H 80.49065307165898 97.35252323362249 56.4257285681486 H 0.0 **** 0.06
10863 H 82.15882410582088 97.0876440449394 56.984401155329465 H 0.0 **** 0.06
10864 H 81.79740665763637 98.42125087073998 55.86147685206714 H 0.0 **** 0.06
10865 H 81.71924772174759 96.73437542943935 55.29574707359603 H 0.0 **** 0.06
10866 C 212.92375939058965 202.50178762564445 156.03578217603905 C 0.0 **** -0.24
10867 H 212.47827573954086 201.64291514633763 155.53329682681414 H 0.0 **** 0.06
10868 H 213.9991017832212 202.5080083343085 155.85806842864065 H 0.0 **** 0.06
10869 H 212.73291619580482 202.4339035385816 157.10689597297016 H 0.0 **** 0.06
10870 H 212.4839918766665 203.41879908031447 155.64475193777275 H 0.0 **** 0.06
10871 C 33.94010671022812 102.72390343180041 186.05484726941003 C 0.0 **** -0.24
10872 H 33.35365263752783 101.83026246463311 186.27211578214866 H 0.0 **** 0.06
10873 H 34.71830140948401 102.83878902438221 186.81033285614382 H 0.0 **** 0.06
10874 H 33.28792925745978 103.59792780872436 186.06808047723501 H 0.0 **** 0.06
10875 H 34.39830168055923 102.62646654190354 185.07155711503245 H 0.0 **** 0.06
10876 C 37.59586388355106 38.51089978770007 183.24808617328813 C 0.0 **** -0.24
10877 H 38.189874171287315 39.05124215047341 182.51139421862393 H 0.0 **** 0.06
10878 H 38.244041859951096 38.1640023128396 184.0535404603844 H 0.0 **** 0.06
10879 H 37.11717735645334 37.655628158114254 182.77136111460015 H 0.0 **** 0.06
10880 H 36.83236255435692 39.17321501357445 183.65517631718842 H 0.0 **** 0.06
10881 C 126.68805105939104 210.89417050901244 150.91674872713878 C 0.0 **** -0.24
10882 H 125.98373351852838 211.39120137085692 150.2492944073016 H 0.0 **** 0.06
10883 H 127.37429150410766 211.6314937078346 151.33430675081354 H 0.0 **** 0.06
10884 H 127.25286010341428 210.14762380945209 150.35770228997535 H 0.0 **** 0.06
10885 H 126.14176548811515 210.4066802721265 151.72404822250115 H 0.0 **** 0.06
10886 C 26.509314783893387 177.17957212545775 146.5610615157757 C 0.0 **** -0.24
10887 H 27.53595902507793 176.93569206241648 146.28628657445262 H 0.0 **** 0.06
10888 H 25.9200260543995 177.3387359161087 145.65808598162846 H 0.0 **** 0.06
10889 H 26.50255584057919 178.08737021165453 147.16460198099446 H 0.0 **** 0.06
10890 H 26.08169116687742 176.35745239635958 147.13478560143278 H 0.0 **** 0.06
10891 C 56.903366631211156 108.28551934182995 186.66239354691828 C 0.0 **** -0.24
10892 H 56.1692966740882 107.73760126905673 187.25314579578293 H 0.0 **** 0.06
10893 H 57.77399254215619 107.65342408393958 186.4881516424468 H 0.0 **** 0.06
10894 H 57.20720912215066 109.18352599391498 187.20042786935076 H 0.0 **** 0.06
10895 H 56.46164492551905 108.56729806898672 185.7058001926219 H 0.0 **** 0.06
10896 C 11.647140899919975 166.48460895894578 160.14016781659754 C 0.0 **** -0.24
10897 H 11.673829237331887 166.53029999870986 159.05206434008733 H 0.0 **** 0.06
10898 H 10.74056671350371 165.9702477135543 160.4593948433687 H 0.0 **** 0.06
10899 H 11.65505380217246 167.49558240413083 160.54658533867956 H 0.0 **** 0.06
10900 H 12.519709477396589 165.9410237500001 160.50266931684882 H 0.0 **** 0.06
10901 C 23.16913293829225 141.20419887649336 117.14935130508688 C 0.0 **** -0.24
10902 H 24.01601895377607 140.76204893027125 117.67315816001427 H 0.0 **** 0.06
10903 H 23.532582299768677 141.8872901568584 116.381814337742 H 0.0 **** 0.06
10904 H 22.54831666415751 141.75139188513396 117.85919361997621 H 0.0 **** 0.06
10905 H 22.577938427159097 140.4143394575919 116.68370517244232 H 0.0 **** 0.06
10906 C 1.076785305778941 199.63574442900094 191.3727613190917 C 0.0 **** -0.24
10907 H 1.6572294176592095 198.72113347278625 191.24591262013405 H 0.0 **** 0.06
10908 H 1.4702475237218948 200.4098269680301 190.71268490696264 H 0.0 **** 0.06
10909 H 1.1474112329917148 199.9699460634514 192.40840961942376 H 0.0 **** 0.06
10910 H 0.03429598733882244 199.44083132370685 191.12350037408203 H 0.0 **** 0.06
10911 C 165.17628141069994 81.76098836136867 176.7423014293086 C 0.0 **** -0.24
10912 H 165.20424787262306 82.80635084080166 177.05178700464344 H 0.0 **** 0.06
10913 H 164.24694439558706 81.30542514937542 177.08654122372513 H 0.0 **** 0.06
10914 H 166.02350337534057 81.23071846558986 177.17763914131135 H 0.0 **** 0.06
10915 H 165.2298787340479 81.70236607235103 175.65544592755307 H 0.0 **** 0.06
10916 C 48.77020276250903 132.71893963839625 113.60366476794593 C 0.0 **** -0.24
10917 H 48.200301403528044 132.45434480118234 114.49426240292672 H 0.0 **** 0.06
10918 H 49.52363810975913 131.95361307335963 113.41416916565146 H 0.0 **** 0.06
10919 H 49.25956909732298 133.6803093612537 113.75744048244184 H 0.0 **** 0.06
10920 H 48.09734498393357 132.78609043833734 112.74859791597117 H 0.0 **** 0.06
10921 C 55.14978699001318 162.32457348214922 188.4378484366434 C 0.0 **** -0.24
10922 H 55.37287548905982 161.35482168416405 188.88292271306878 H 0.0 **** 0.06
10923 H 55.24764331646537 163.10303051591995 189.1949395366568 H 0.0 **** 0.06
10924 H 54.131826958444265 162.32022959808913 188.04945479012207 H 0.0 **** 0.06
10925 H 55.84850492923306 162.5191919010694 187.6230471842007 H 0.0 **** 0.06
10926 C 201.42613139549698 139.5160564069305 192.9305214736386 C 0.0 **** -0.24
10927 H 200.44081285046678 139.7723612925368 193.3204411002599 H 0.0 **** 0.06
10928 H 201.63150260885035 140.11172104693588 192.04126536182312 H 0.0 **** 0.06
10929 H 201.44951794328654 138.45669194305435 192.671403411937 H 0.0 **** 0.06
10930 H 202.1819750811987 139.7216152363124 193.68863757975794 H 0.0 **** 0.06
10931 C 57.68976983821511 216.86863242160126 112.54497002863071 C 0.0 **** -0.24
10932 H 57.31741555175222 216.67417523386365 111.54022688333932 H 0.0 **** 0.06
10933 H 58.554824208099845 216.23478185332726 112.74189779164531 H 0.0 **** 0.06
10934 H 56.90718226665955 216.6505492899753 113.27150534989848 H 0.0 **** 0.06
10935 H 57.980222207084694 217.9165152944713 112.62810885038654 H 0.0 **** 0.06
10936 C 10.398479327530765 83.09178125923142 196.39381249399224 C 0.0 **** -0.24
10937 H 10.970256822705338 82.29187222503094 196.86365412695096 H 0.0 **** 0.06
10938 H 9.649916925048004 83.46236472853832 197.0948370125763 H 0.0 **** 0.06
10939 H 9.903008004528857 82.7075243344753 195.50181421347446 H 0.0 **** 0.06
10940 H 11.070706850376126 83.90298095358429 196.1155116892312 H 0.0 **** 0.06
10941 C 134.56931991330856 19.828036450196947 138.9212403404963 C 0.0 **** -0.24
10942 H 135.45833488335086 20.11430965765237 139.48422274681923 H 0.0 **** 0.06
10943 H 133.74490514560495 19.647860618060122 139.6123576425253 H 0.0 **** 0.06
10944 H 134.7748825163062 18.919870697299586 138.35472810257852 H 0.0 **** 0.06
10945 H 134.30034724485319 20.6312390060194 138.23516855428403 H 0.0 **** 0.06
10946 C 208.75984084647706 165.75583596190373 124.50488083720886 C 0.0 **** -0.24
10947 H 209.71252381038732 166.1033673491587 124.1056475267555 H 0.0 **** 0.06
10948 H 208.10412350067793 166.6105918035974 124.67324462194547 H 0.0 **** 0.06
10949 H 208.92959761350448 165.2362979440277 125.44819469417921 H 0.0 **** 0.06
10950 H 208.29523827186182 165.07421992609682 123.79290811899041 H 0.0 **** 0.06
10951 C 170.54684717779628 137.99116494408565 33.9506449641725 C 0.0 **** -0.24
10952 H 170.77067993835522 139.05658211929335 34.008110447396064 H 0.0 **** 0.06
10953 H 171.08502700853256 137.46447298451733 34.73953038542487 H 0.0 **** 0.06
10954 H 170.8581326204616 137.60709671171662 32.97864078654882 H 0.0 **** 0.06
10955 H 169.4757488047092 137.83841953585977 34.07558582912914 H 0.0 **** 0.06
10956 C 146.46022607017886 206.55575768976155 13.730616802570694 C 0.0 **** -0.24
10957 H 146.88520094003286 207.03792347507067 12.85082442051963 H 0.0 **** 0.06
10958 H 147.0404252491495 205.66546635099726 13.973524982907179 H 0.0 **** 0.06
10959 H 145.42743902949366 206.27299826949238 13.52785790904474 H 0.0 **** 0.06
10960 H 146.48761748121285 207.24840007152974 14.572681172567329 H 0.0 **** 0.06
10961 C 56.20596660200087 124.45079347625887 47.8994242808223 C 0.0 **** -0.24
10962 H 56.2920765171621 125.536239110179 47.8473954564771 H 0.0 **** 0.06
10963 H 55.311714737287645 124.13133173527046 47.36461316515192 H 0.0 **** 0.06
10964 H 56.135560957048185 124.14160178803195 48.94252527806884 H 0.0 **** 0.06
10965 H 57.08519851893736 123.99484093450906 47.444514785568686 H 0.0 **** 0.06
10966 C 58.629774881079015 119.61983581120406 216.64399161095383 C 0.0 **** -0.24
10967 H 59.21900595740931 120.33479716100588 217.21804747954053 H 0.0 **** 0.06
10968 H 59.10643488130074 119.44842895615314 215.67915117817944 H 0.0 **** 0.06
10969 H 57.626869299804184 120.01607191225453 216.48979219957272 H 0.0 **** 0.06
10970 H 58.56886459509673 118.67899476912582 217.1913399586254 H 0.0 **** 0.06
10971 C 198.83914088374047 100.7026131010868 96.56609829406476 C 0.0 **** -0.24
10972 H 199.20093229271336 101.67526788412039 96.23200430428683 H 0.0 **** 0.06
10973 H 199.47788228840204 99.91911722318008 96.15890699202733 H 0.0 **** 0.06
10974 H 197.81665980783387 100.55642487904487 96.21878636079579 H 0.0 **** 0.06
10975 H 198.86260399509734 100.6613809847243 97.6555217876862 H 0.0 **** 0.06
10976 C 126.33549173359792 43.410063432280424 205.1148427942959 C 0.0 **** -0.24
10977 H 127.08091293036462 44.19476260113731 205.2394203625504 H 0.0 **** 0.06
10978 H 125.3431835558908 43.81893940627771 205.30633969292487 H 0.0 **** 0.06
10979 H 126.53784590396087 42.602115127593436 205.81870604885913 H 0.0 **** 0.06
10980 H 126.37913450440313 43.02405474154983 204.0969205386932 H 0.0 **** 0.06
10981 C 124.96927383153955 10.872782774582205 78.29172379925247 C 0.0 **** -0.24
10982 H 124.81797314100389 9.793882226061314 78.33230522292409 H 0.0 **** 0.06
10983 H 125.36595373641494 11.219238378681027 79.24657913992972 H 0.0 **** 0.06
10984 H 124.01882146755521 11.365878711605177 78.09223994840103 H 0.0 **** 0.06
10985 H 125.67662413311415 11.109820819458903 77.49698506642294 H 0.0 **** 0.06
10986 C 24.361597991675225 76.95364937913223 74.47238752425346 C 0.0 **** -0.24
10987 H 24.09214778903771 76.44090220997333 75.3956258801208 H 0.0 **** 0.06
10988 H 23.984016120671342 76.38838567905174 73.62009237383472 H 0.0 **** 0.06
10989 H 25.446329234867463 77.03317387876126 74.40332874902424 H 0.0 **** 0.06
10990 H 23.92277885135863 77.95127223834203 74.47051010616212 H 0.0 **** 0.06
10991 C 72.48475524007625 145.5360731706785 198.65003141543022 C 0.0 **** -0.24
10992 H 71.70500150739917 145.2956238002929 197.92745384123066 H 0.0 **** 0.06
10993 H 73.09105791541936 144.6501603080256 198.8393898208043 H 0.0 **** 0.06
10994 H 72.02619708427551 145.8686089292508 199.581318441274 H 0.0 **** 0.06
10995 H 73.11626702287953 146.33090035506405 198.2528302628717 H 0.0 **** 0.06
10996 C 1.3136331969964417 160.05878459623167 134.1704577623692 C 0.0 **** -0.24
10997 H 2.084237486187895 160.79083595468376 133.92933752104994 H 0.0 **** 0.06
10998 H 0.4322741105459258 160.24349532019664 133.55592765441372 H 0.0 **** 0.06
10999 H 1.0478271794976664 160.1471552879799 135.223871223093 H 0.0 **** 0.06
11000 H 1.6914552642500666 159.0562525447557 133.9734981658081 H 0.0 **** 0.06
11001 C 26.029443353118936 174.01635870164807 176.17919664095103 C 0.0 **** -0.24
11002 H 26.472096825771814 173.07392909845214 176.49966576743094 H 0.0 **** 0.06
11003 H 26.749553731736157 174.82285234014523 176.32279056799888 H 0.0 **** 0.06
11004 H 25.136011150511052 174.21719685349092 176.76995552870252 H 0.0 **** 0.06
11005 H 25.76076476038756 173.9522131886764 175.12440599019794 H 0.0 **** 0.06
11006 C 110.91860784346959 57.51225896382502 161.62425274070864 C 0.0 **** -0.24
11007 H 110.56979569880302 57.17393983696044 160.64804200014643 H 0.0 **** 0.06
11008 H 111.97088613975306 57.25269973230053 161.7433306213776 H 0.0 **** 0.06
11009 H 110.33322978984016 57.02770328354106 162.4053464960639 H 0.0 **** 0.06
11010 H 110.79950982226298 58.59296711826329 161.69729157875264 H 0.0 **** 0.06
11011 C 28.22606731857404 155.2770236316308 196.41766996600387 C 0.0 **** -0.24
11012 H 28.612471802339982 154.79894367428864 197.31883437806255 H 0.0 **** 0.06
11013 H 28.756882704710776 156.21336233576216 196.24724114176115 H 0.0 **** 0.06
11014 H 27.162368826076275 155.47838119834364 196.54240879250608 H 0.0 **** 0.06
11015 H 28.372761989399436 154.61439263332386 195.56500006355418 H 0.0 **** 0.06
11016 C 92.51276622644576 174.54091612123372 107.89696608167439 C 0.0 **** -0.24
11017 H 91.60645534146852 174.01422336025064 108.19711515360056 H 0.0 **** 0.06
11018 H 93.07069411778389 173.9271700093459 107.18869400080293 H 0.0 **** 0.06
11019 H 93.1281001002809 174.73374792328332 108.77559014881895 H 0.0 **** 0.06
11020 H 92.24354171926018 175.48594406592366 107.42604201981392 H 0.0 **** 0.06
11021 C 169.04394453194953 1.8055781967218465 142.13004742430303 C 0.0 **** -0.24
11022 H 169.38682853339236 2.83981777400399 142.16354666425576 H 0.0 **** 0.06
11023 H 169.88258003060366 1.1530481253133544 141.8875352806399 H 0.0 **** 0.06
11024 H 168.27144107617445 1.7046781396006025 141.36705152461343 H 0.0 **** 0.06
11025 H 168.63374694560312 1.526985920850933 143.10041663769385 H 0.0 **** 0.06
11026 C 37.22794315335908 74.40669907692096 54.174214813349465 C 0.0 **** -0.24
11027 H 37.12939268675402 75.40564328462811 53.74937082793909 H 0.0 **** 0.06
11028 H 38.1003458404212 73.91442684429443 53.74499257535909 H 0.0 **** 0.06
11029 H 36.33425636327989 73.8257264502186 53.94853838895894 H 0.0 **** 0.06
11030 H 37.3488454884842 74.48358624943795 55.25503909833904 H 0.0 **** 0.06
11031 C 79.06844177113214 12.273222887246902 183.4547546454793 C 0.0 **** -0.24
11032 H 79.07693754038212 13.351730631766316 183.29643532512233 H 0.0 **** 0.06
11033 H 80.01989365664673 11.96296464063073 183.8877030041075 H 0.0 **** 0.06
11034 H 78.9191490428559 11.767239451961473 182.50117110265865 H 0.0 **** 0.06
11035 H 78.25769571986939 12.0130561248331 184.13496801325513 H 0.0 **** 0.06
11036 C 147.3350139001982 19.127120112926164 77.21722555995206 C 0.0 **** -0.24
11037 H 148.12606995761178 18.383726396298698 77.31766578781486 H 0.0 **** 0.06
11038 H 147.72228928041244 20.108558527869235 77.49111888996543 H 0.0 **** 0.06
11039 H 146.506256812535 18.86702309311569 77.87600653494485 H 0.0 **** 0.06
11040 H 146.98603542111897 19.14851140796769 76.18559697215716 H 0.0 **** 0.06
11041 C 2.7695961328139163 192.99387453339233 5.244001171726389 C 0.0 **** -0.24
11042 H 2.338822753351252 192.06655394108924 5.6231910597191614 H 0.0 **** 0.06
11043 H 3.6881052936634546 192.7718745314046 4.700955084546663 H 0.0 **** 0.06
11044 H 2.9921002561178227 193.65873585803848 6.079726905857569 H 0.0 **** 0.06
11045 H 2.0577358094012084 193.47781599526903 4.574797398918946 H 0.0 **** 0.06
11046 C 104.24794298260379 77.95962997443507 130.0290108901338 C 0.0 **** -0.24
11047 H 104.42348633143833 77.56473108370841 129.02810402960444 H 0.0 **** 0.06
11048 H 105.1682542418363 77.90302429066412 130.60916353944503 H 0.0 **** 0.06
11049 H 103.47156590314312 77.37201764851466 130.51967425069802 H 0.0 **** 0.06
11050 H 103.9250525477134 78.99839494787034 129.95760893960193 H 0.0 **** 0.06
11051 C 68.70509838502092 124.59030541369005 172.25852350269076 C 0.0 **** -0.24
11052 H 69.7548657500122 124.63922760318825 171.96912889957903 H 0.0 **** 0.06
11053 H 68.51780168000509 123.6541497867973 172.7866084969207 H 0.0 **** 0.06
11054 H 68.08086158300704 124.63521160766227 171.36592281320705 H 0.0 **** 0.06
11055 H 68.46818472998754 125.4296470985545 172.9106052109955 H 0.0 **** 0.06
11056 C 145.35434791377963 23.254576466612548 191.01641621203186 C 0.0 **** -0.24
11057 H 146.09693313055084 23.115182770722413 190.23119349281154 H 0.0 **** 0.06
11058 H 144.5973849825063 22.472974268219673 190.9455199872987 H 0.0 **** 0.06
11059 H 144.88199016374807 24.229694139960145 190.90131712044578 H 0.0 **** 0.06
11060 H 145.84212900560846 23.200462276749846 191.9906186697018 H 0.0 **** 0.06
11061 C 142.15479716019252 186.04021352907955 147.05709462660695 C 0.0 **** -0.24
11062 H 142.29565849196143 186.84886737475313 147.7733921614623 H 0.0 **** 0.06
11063 H 142.81547886452972 186.1926942192551 146.2020165547865 H 0.0 **** 0.06
11064 H 141.11891364057988 186.0306212476632 146.71810427587076 H 0.0 **** 0.06
11065 H 142.39000356440056 185.08832134860867 147.53260104200768 H 0.0 **** 0.06
11066 C 90.26974631252317 109.95829840949217 196.86758867608881 C 0.0 **** -0.24
11067 H 90.73057181744987 110.51151646708787 197.68646826808848 H 0.0 **** 0.06
11068 H 90.22202767161367 110.59291243012093 195.9826518912415 H 0.0 **** 0.06
11069 H 89.2620680628303 109.65850750104615 197.15455746385243 H 0.0 **** 0.06
11070 H 90.8643755891995 109.07177073540505 196.6483220930782 H 0.0 **** 0.06
11071 C 48.24078287025324 202.27951305022913 178.88536815430967 C 0.0 **** -0.24
11072 H 47.59412567283607 203.0821435378162 179.23938072381503 H 0.0 **** 0.06
11073 H 47.75457802960132 201.75746090396026 178.06201432705603 H 0.0 **** 0.06
11074 H 48.42810364993366 201.57957574306 179.70054166469566 H 0.0 **** 0.06
11075 H 49.186254485988 202.6992680265986 178.5423356268658 H 0.0 **** 0.06
11076 C 135.2152123320925 98.53683269528106 20.52717174912209 C 0.0 **** -0.24
11077 H 136.2564764883967 98.51391809974764 20.206756388632854 H 0.0 **** 0.06
11078 H 134.59288821165006 98.9069824949831 19.71175224342005 H 0.0 **** 0.06
11079 H 135.11508864797668 99.19711350077567 21.38856750060151 H 0.0 **** 0.06
11080 H 134.89685102660565 97.53113096369943 20.800029272977483 H 0.0 **** 0.06
11081 C 115.984142676366 93.5430901529533 204.21378623380588 C 0.0 **** -0.24
11082 H 115.23920772255728 94.31074676754479 204.42092714449905 H 0.0 **** 0.06
11083 H 116.96752321964566 94.00526775171203 204.1201500592798 H 0.0 **** 0.06
11084 H 115.7322091692924 93.03334457671947 203.28389156734926 H 0.0 **** 0.06
11085 H 115.99850817277162 92.82103677317785 205.03078421546894 H 0.0 **** 0.06
11086 C 171.13154303190345 130.50564455346222 19.149217835360375 C 0.0 **** -0.24
11087 H 171.78176758481652 131.05792096775718 19.828670521441737 H 0.0 **** 0.06
11088 H 171.56739279427836 130.50608388994476 18.150414591818247 H 0.0 **** 0.06
11089 H 170.15118494031074 130.9806533005887 19.11888911166568 H 0.0 **** 0.06
11090 H 171.0272365459818 129.47851474842207 19.50052778035345 H 0.0 **** 0.06
11091 C 144.26041992024136 21.20707178373594 181.78591001097726 C 0.0 **** -0.24
11092 H 145.08306166165409 20.717055324028024 181.26646266323974 H 0.0 **** 0.06
11093 H 144.41657365786045 22.285799216589197 181.77700648752074 H 0.0 **** 0.06
11094 H 144.2193117112979 20.85336559606924 182.81594747586712 H 0.0 **** 0.06
11095 H 143.32223502886075 20.971791096613075 181.28340106195617 H 0.0 **** 0.06
11096 C 203.15370423598876 63.829754607724226 51.948439330954955 C 0.0 **** -0.24
11097 H 202.2249314076786 63.29833469966809 52.158556130748764 H 0.0 **** 0.06
11098 H 203.07015522997864 64.85861043261394 52.30054217892945 H 0.0 **** 0.06
11099 H 203.33857841840745 63.82673862619987 50.87512039188522 H 0.0 **** 0.06
11100 H 203.97920889075056 63.336168841769904 52.46141720129185 H 0.0 **** 0.06
11101 C 181.32604265531631 142.94436387002128 179.3717323288309 C 0.0 **** -0.24
11102 H 180.47527605084107 142.64425196093197 178.76005008934726 H 0.0 **** 0.06
11103 H 181.43307031339486 142.25209776658596 180.20706870742396 H 0.0 **** 0.06
11104 H 181.16122760262698 143.9518975799591 179.75242504397983 H 0.0 **** 0.06
11105 H 182.2325336215238 142.927399130708 178.7666988900279 H 0.0 **** 0.06
11106 C 160.49177456258008 165.1553167938824 111.75884272996832 C 0.0 **** -0.24
11107 H 160.09307475309572 166.1123724463177 112.09591554710566 H 0.0 **** 0.06
11108 H 160.23285317411015 165.00152342694764 110.71174606078257 H 0.0 **** 0.06
11109 H 160.06529325881263 164.353226671627 112.36094759148376 H 0.0 **** 0.06
11110 H 161.5765460172647 165.155463723556 111.87061045846791 H 0.0 **** 0.06
11111 C 138.2574477658717 64.3486401319031 106.82404498845541 C 0.0 **** -0.24
11112 H 138.957338490484 65.10791943350353 107.17534839097387 H 0.0 **** 0.06
11113 H 138.00965416290228 63.675772498079425 107.64551782978809 H 0.0 **** 0.06
11114 H 138.71397970496298 63.781722639403796 106.01281611897879 H 0.0 **** 0.06
11115 H 137.34942013129358 64.83208429101114 106.46242956883337 H 0.0 **** 0.06
11116 C 186.14677812686952 39.97179039979238 61.44732472241549 C 0.0 **** -0.24
11117 H 186.10901698106716 39.30559864131871 60.585507589167804 H 0.0 **** 0.06
11118 H 187.18529343520487 40.13248080466772 61.73634839074873 H 0.0 **** 0.06
11119 H 185.60310735230055 39.522113036498354 62.27755268925131 H 0.0 **** 0.06
11120 H 185.6899106267383 40.92625321539674 61.18755762977071 H 0.0 **** 0.06
11121 C 214.30108922993017 88.60718663024898 139.07484639457715 C 0.0 **** -0.24
11122 H 215.1110134230555 89.28199550137755 138.7968105430296 H 0.0 **** 0.06
11123 H 213.7284840832432 88.34086988256217 138.18705821413033 H 0.0 **** 0.06
11124 H 213.64810235091528 89.10141762795014 139.79435177850587 H 0.0 **** 0.06
11125 H 214.71935042485967 87.70535243556691 139.52274125676 H 0.0 **** 0.06
11126 C 128.3824354667953 108.70991887747762 215.3857114695899 C 0.0 **** -0.24
11127 H 127.50930377342009 108.05919835356211 215.42563602802548 H 0.0 **** 0.06
11128 H 129.0239271434752 108.5100401057601 216.2441001025973 H 0.0 **** 0.06
11129 H 128.06088595914298 109.7517493802486 215.40591723880496 H 0.0 **** 0.06
11130 H 128.9361271718567 108.51947469941105 214.46613023134617 H 0.0 **** 0.06
11131 C 59.861211056768894 198.05371502042829 44.74747396767269 C 0.0 **** -0.24
11132 H 60.67440964492998 197.37386619333125 44.4914451001402 H 0.0 **** 0.06
11133 H 60.09144963329902 198.55486727998627 45.68822567003225 H 0.0 **** 0.06
11134 H 58.93577288620608 197.48816319192832 44.853494949658895 H 0.0 **** 0.06
11135 H 59.746378475704375 198.7959550592939 43.95871525409434 H 0.0 **** 0.06
11136 C 150.79944612791172 149.70160708190474 183.67956443644906 C 0.0 **** -0.24
11137 H 151.74406377550855 150.22211196826987 183.52255075542735 H 0.0 **** 0.06
11138 H 150.3665726142126 150.01220565171076 184.63074801215078 H 0.0 **** 0.06
11139 H 150.9768738410006 148.62596540716243 183.69539294193856 H 0.0 **** 0.06
11140 H 150.11159164528704 149.9446417248796 182.86962832078012 H 0.0 **** 0.06
11141 C 19.30481180703208 216.44423022744422 147.23783324688873 C 0.0 **** -0.24
11142 H 18.743794880204717 216.69707947125872 148.13727996413627 H 0.0 **** 0.06
11143 H 19.549100871310657 215.38177576931182 147.24951755064052 H 0.0 **** 0.06
11144 H 20.223699537527807 217.02944953338806 147.20701386996035 H 0.0 **** 0.06
11145 H 18.701686493111538 216.66930619521557 146.35829086609988 H 0.0 **** 0.06
11146 C 8.096341430839445 159.45463441400912 33.1307051692732 C 0.0 **** -0.24
11147 H 7.268215260343894 159.8239564422388 33.73501668636561 H 0.0 **** 0.06
11148 H 8.672660565813672 160.2987851735361 32.7505250720547 H 0.0 **** 0.06
11149 H 7.70541214530806 158.87504268201295 32.29384623777318 H 0.0 **** 0.06
11150 H 8.73908974103405 158.82162509241027 33.74294283116643 H 0.0 **** 0.06
11151 C 202.05145104211013 108.65706982347301 100.70637145612703 C 0.0 **** -0.24
11152 H 201.7066824987844 109.62300035086291 100.33657419611585 H 0.0 **** 0.06
11153 H 202.7954251602631 108.25064140955409 100.02085588285858 H 0.0 **** 0.06
11154 H 201.2068646291448 107.97180361165492 100.775603962718 H 0.0 **** 0.06
11155 H 202.49848947427435 108.78511375086553 101.69268608424177 H 0.0 **** 0.06
11156 C 45.1866306728335 82.08841327898489 32.95145414291059 C 0.0 **** -0.24
11157 H 46.04699669703456 82.74005387187907 32.79250756980014 H 0.0 **** 0.06
11158 H 44.27474290645182 82.62096779000524 32.67954874088997 H 0.0 **** 0.06
11159 H 45.13936237591068 81.79926774242352 34.00045255655965 H 0.0 **** 0.06
11160 H 45.28650637994798 81.19803346802581 32.331571288296715 H 0.0 **** 0.06
11161 C 61.272985543614936 63.67180021483111 58.698131672311206 C 0.0 **** -0.24
11162 H 61.6816208245271 64.462541562012 58.069876591683595 H 0.0 **** 0.06
11163 H 61.63308182409207 63.79697492337493 59.7194852372165 H 0.0 **** 0.06
11164 H 61.59347456259104 62.70218110781707 58.31650787900719 H 0.0 **** 0.06
11165 H 60.184711747221 63.725405669311215 58.68696372540495 H 0.0 **** 0.06
11166 C 19.634560308502074 72.0476167629451 187.9840968757578 C 0.0 **** -0.24
11167 H 20.523483371727366 71.41855403138112 188.01575100356965 H 0.0 **** 0.06
11168 H 19.232849108213543 72.05733445620228 186.97053837920888 H 0.0 **** 0.06
11169 H 19.8973903730884 73.06297145212665 188.28043678963166 H 0.0 **** 0.06
11170 H 18.884245456443978 71.65142350687415 188.6687169693134 H 0.0 **** 0.06
11171 C 36.669229362601925 119.5384694480157 108.93895388700498 C 0.0 **** -0.24
11172 H 36.00123742008611 119.1207746828916 109.69194125561661 H 0.0 **** 0.06
11173 H 37.6471144312178 119.06097648611994 109.01679627989954 H 0.0 **** 0.06
11174 H 36.77430128575219 120.61115273934526 109.10260165008113 H 0.0 **** 0.06
11175 H 36.255467520211766 119.36068729325608 107.94659066156383 H 0.0 **** 0.06
11176 C 171.5809708573525 147.62069494582755 41.34347243261061 C 0.0 **** -0.24
11177 H 171.24998155513873 148.56627125839293 41.77254661036301 H 0.0 **** 0.06
11178 H 171.81192661220604 146.91908701292402 42.14503084235895 H 0.0 **** 0.06
11179 H 172.47269101079434 147.78919026614432 40.7396350100629 H 0.0 **** 0.06
11180 H 170.78949076792492 147.21063021992114 40.71622740549486 H 0.0 **** 0.06
11181 C 72.73509161267064 21.625077417707047 122.86729483090103 C 0.0 **** -0.24
11182 H 73.19488258925229 22.58568602435608 123.09856197484213 H 0.0 **** 0.06
11183 H 73.29070971359168 21.14134969037326 122.06266747445083 H 0.0 **** 0.06
11184 H 71.70392119318508 21.782552115374642 122.55398445564178 H 0.0 **** 0.06
11185 H 72.75329259353835 20.990503014859144 123.75394594956855 H 0.0 **** 0.06
11186 C 216.1130010162011 201.68979810820028 8.35048301310438 C 0.0 **** -0.24
11187 H 215.7716164352687 201.858588668497 9.372123587305225 H 0.0 **** 0.06
11188 H 216.48703015686215 200.66998636697662 8.25672075377976 H 0.0 **** 0.06
11189 H 216.90966725248708 202.39342577792561 8.112480663527563 H 0.0 **** 0.06
11190 H 215.2802668744804 201.83637894052518 7.661880034255731 H 0.0 **** 0.06
11191 C 172.47253795359444 191.98742646272706 64.31084110534388 C 0.0 **** -0.24
11192 H 172.43976619352054 192.1149993135126 65.39300251731663 H 0.0 **** 0.06
11193 H 171.5442640785526 191.52780408310946 63.97151969809187 H 0.0 **** 0.06
11194 H 173.31389174942478 191.3474100792541 64.04633034005641 H 0.0 **** 0.06
11195 H 172.5925163613495 192.96107045060901 63.834069954717336 H 0.0 **** 0.06
11196 C 197.4105521442614 202.2138349153616 154.57474519244965 C 0.0 **** -0.24
11197 H 196.64268142450277 202.3323532022928 155.33927518619976 H 0.0 **** 0.06
11198 H 197.96335443408805 201.29136879719712 154.75385140260772 H 0.0 **** 0.06
11199 H 198.09496279972683 203.06129646641372 154.6128123710053 H 0.0 **** 0.06
11200 H 196.94013267979614 202.17136847647913 153.5917216483598 H 0.0 **** 0.06
11201 C 104.83306391624758 210.11171852017426 55.0484851205171 C 0.0 **** -0.24
11202 H 104.80425698014575 209.91907409802522 53.976796548291915 H 0.0 **** 0.06
11203 H 103.82860126612316 210.3408338062297 55.4048474536356 H 0.0 **** 0.06
11204 H 105.49165094082785 210.95808834356666 55.24804067732039 H 0.0 **** 0.06
11205 H 105.21031794987782 209.22953949935547 55.565230412944786 H 0.0 **** 0.06
11206 C 8.830526351963897 148.28772457476646 175.48623252296048 C 0.0 **** -0.24
11207 H 9.460864914991248 148.60037211857372 176.31869269938926 H 0.0 **** 0.06
11208 H 9.002922024924288 147.23196635636333 175.27561565968978 H 0.0 **** 0.06
11209 H 9.075425167656135 148.87878239173983 174.6039625204486 H 0.0 **** 0.06
11210 H 7.782761517753215 148.44030589389894 175.7458205355318 H 0.0 **** 0.06
11211 C 103.83418749589839 36.08395379786674 107.06922474901042 C 0.0 **** -0.24
11212 H 103.54471137568589 37.13323351299971 107.12537445155333 H 0.0 **** 0.06
11213 H 104.63937642202563 35.96776645409537 106.34276108435749 H 0.0 **** 0.06
11214 H 102.97641358523612 35.486937580208405 106.75930751287397 H 0.0 **** 0.06
11215 H 104.17635418150661 35.74915382606878 108.04828964400595 H 0.0 **** 0.06
11216 C 113.15308225281545 136.6594707044585 93.01897114759623 C 0.0 **** -0.24
11217 H 112.10768798347625 136.4172783668215 92.83087593429315 H 0.0 **** 0.06
11218 H 113.27300043140981 136.96758013771273 94.05756844320234 H 0.0 **** 0.06
11219 H 113.46205732097825 137.47164528354824 92.36040299705769 H 0.0 **** 0.06
11220 H 113.76958327539732 135.78137902975146 92.82703721583181 H 0.0 **** 0.06
11221 C 143.6549903669519 97.02914805554705 32.689171137420004 C 0.0 **** -0.24
11222 H 144.7018510341694 97.07089799646663 32.38809170266984 H 0.0 **** 0.06
11223 H 143.59161144368068 96.75168644763677 33.74155382057661 H 0.0 **** 0.06
11224 H 143.13353499767499 96.28627674761707 32.08457236559963 H 0.0 **** 0.06
11225 H 143.1956681194398 98.0058778098694 32.5419632165286 H 0.0 **** 0.06
11226 C 138.87869152918876 56.168503989984345 97.93924473853092 C 0.0 **** -0.24
11227 H 139.72571975527808 55.49308589492068 97.81804770196364 H 0.0 **** 0.06
11228 H 137.951859332205 55.623013552720124 97.76110321697557 H 0.0 **** 0.06
11229 H 138.9619093250633 56.987260909471104 97.22488976148044 H 0.0 **** 0.06
11230 H 138.87557267434192 56.568464597589866 98.95327379333351 H 0.0 **** 0.06
11231 C 15.087184793738885 2.5693300568449615 183.25768371491387 C 0.0 **** -0.24
11232 H 14.336757307436216 1.957602079410492 183.75830593168826 H 0.0 **** 0.06
11233 H 14.989808851375358 2.45209829641135 182.1785082090327 H 0.0 **** 0.06
11234 H 16.081512234235163 2.2509539855319645 183.57102658970754 H 0.0 **** 0.06
11235 H 14.939450165542098 3.615009931133102 183.52602343025546 H 0.0 **** 0.06
11236 C 171.17987180330522 77.2721266898303 11.024357627221264 C 0.0 **** -0.24
11237 H 170.75715132807923 77.1368749985052 10.028250436534478 H 0.0 **** 0.06
11238 H 170.80262775590194 76.49299563247449 11.687792540818805 H 0.0 **** 0.06
11239 H 170.89159514205642 78.24955168798719 11.411408113691834 H 0.0 **** 0.06
11240 H 172.266054297706 77.20858889412749 10.969260866298896 H 0.0 **** 0.06
11241 C 130.17141605409563 190.51173709596014 160.85735889296203 C 0.0 **** -0.24
11242 H 130.99863496127432 190.60034921795605 161.56106969676216 H 0.0 **** 0.06
11243 H 129.5390597308584 189.67033205183668 161.14333300811072 H 0.0 **** 0.06
11244 H 130.56509919577377 190.34584652343938 159.85386297247885 H 0.0 **** 0.06
11245 H 129.5837803201626 191.42893907809747 160.869763793307 H 0.0 **** 0.06
11246 C 112.84637000573365 57.93476000967512 204.05358779758907 C 0.0 **** -0.24
11247 H 113.3245912000982 58.91394547515995 204.06096619923014 H 0.0 **** 0.06
11248 H 111.92836144399341 57.983736937407215 203.4679533742118 H 0.0 **** 0.06
11249 H 112.61104707316345 57.63700352924617 205.0758296221499 H 0.0 **** 0.06
11250 H 113.52272223492706 57.203889889287126 203.61009408921262 H 0.0 **** 0.06
11251 C 24.202748082719552 72.390564755422 142.75229373084204 C 0.0 **** -0.24
11252 H 23.279159676318784 71.88688415531034 142.46255680086512 H 0.0 **** 0.06
11253 H 25.05451634250869 71.75936681638818 142.49748175567015 H 0.0 **** 0.06
11254 H 24.19338816831595 72.57532326388012 143.82662739760087 H 0.0 **** 0.06
11255 H 24.28099433437987 73.33886613862568 142.22106483583013 H 0.0 **** 0.06
11256 C 135.5693250443672 92.37309494019321 95.0585655327203 C 0.0 **** -0.24
11257 H 136.02295840237036 93.35358831151966 95.20291115953445 H 0.0 **** 0.06
11258 H 135.04004023404758 92.08175005280337 95.96544638039497 H 0.0 **** 0.06
11259 H 136.3474536568143 91.6419047444573 94.8400091482054 H 0.0 **** 0.06
11260 H 134.8668476022034 92.41711741360258 94.22561858328676 H 0.0 **** 0.06
11261 C 157.42007324990476 161.1354633656329 118.25258969686713 C 0.0 **** -0.24
11262 H 157.19394262881616 162.20250460556252 118.25505921903344 H 0.0 **** 0.06
11263 H 156.87860189327205 160.64776556795914 119.06315046809088 H 0.0 **** 0.06
11264 H 158.49107058053264 160.9917728415502 118.3920130489454 H 0.0 **** 0.06
11265 H 157.1168400990203 160.70332845872315 117.29887211922521 H 0.0 **** 0.06
11266 C 76.5278117152526 88.93306444569684 171.14116534086054 C 0.0 **** -0.24
11267 H 75.50889020872836 88.57140378355085 171.00104155747454 H 0.0 **** 0.06
11268 H 77.20286009427917 88.08261756826413 171.24519879516833 H 0.0 **** 0.06
11269 H 76.57466432236947 89.54674456544994 172.0401534728349 H 0.0 **** 0.06
11270 H 76.82356153178273 89.52942501174611 170.2786044784398 H 0.0 **** 0.06
11271 C 73.45518273218498 71.0949087334184 120.49115409157629 C 0.0 **** -0.24
11272 H 74.06898712263255 70.6971471694376 119.68269503066132 H 0.0 **** 0.06
11273 H 74.00591413594852 71.0315878978363 121.42990620863223 H 0.0 **** 0.06
11274 H 72.53665818952449 70.51305143223409 120.56890295285628 H 0.0 **** 0.06
11275 H 73.210359038438 72.13583854397335 120.28237045347204 H 0.0 **** 0.06
11276 C 110.55044435974968 158.1307948741806 165.00034521925235 C 0.0 **** -0.24
11277 H 110.14726907889305 158.9318349040044 165.61909370014308 H 0.0 **** 0.06
11278 H 109.77949387920255 157.77802784416315 164.31513728044143 H 0.0 **** 0.06
11279 H 110.87360047120912 157.30704289249672 165.63802300846174 H 0.0 **** 0.06
11280 H 111.40066726950094 158.50458530757172 164.43038834261472 H 0.0 **** 0.06
11281 C 52.89513905074034 112.29435865459453 4.6516991219192505 C 0.0 **** -0.24
11282 H 53.68819182490709 112.0116252198577 3.9599237050155693 H 0.0 **** 0.06
11283 H 52.05157310892679 112.69748424321796 4.092166832585491 H 0.0 **** 0.06
11284 H 53.26860456788785 113.05027144878352 5.342366544307765 H 0.0 **** 0.06
11285 H 52.573291282548624 111.41689733552687 5.213540561068783 H 0.0 **** 0.06
11286 C 23.652126389087357 164.37830272431245 25.50505042946223 C 0.0 **** -0.24
11287 H 24.19291056453079 165.2989079286099 25.28538096868715 H 0.0 **** 0.06
11288 H 23.864825938328465 163.638691795537 24.733270856545104 H 0.0 **** 0.06
11289 H 22.58217356873513 164.58357804978277 25.52787867321922 H 0.0 **** 0.06
11290 H 23.969074346033835 163.9939204981633 26.475157358613785 H 0.0 **** 0.06
11291 C 50.64913722083142 206.28771812649154 105.85158429070289 C 0.0 **** -0.24
11292 H 49.81875395786885 206.7749340271223 106.36200904358218 H 0.0 **** 0.06
11293 H 50.54463232484015 205.2064509148088 105.9385329660209 H 0.0 **** 0.06
11294 H 51.58878100024809 206.60125326660074 106.30608117220031 H 0.0 **** 0.06
11295 H 50.64287459679706 206.57026036152598 104.79843956344591 H 0.0 **** 0.06
11296 C 156.58883567449777 204.31858208952738 43.31458784844112 C 0.0 **** -0.24
11297 H 156.15240253527287 205.1393572872337 43.88377000441133 H 0.0 **** 0.06
11298 H 156.08059639287558 203.3890937084118 43.56960609265141 H 0.0 **** 0.06
11299 H 157.6479724227379 204.2318363606533 43.555574676500584 H 0.0 **** 0.06
11300 H 156.47367298161373 204.5156587311382 42.24845441448379 H 0.0 **** 0.06
11301 C 68.68874222787309 19.315263691924542 189.12814910551245 C 0.0 **** -0.24
11302 H 67.62458905583867 19.080345787825422 189.1634443485875 H 0.0 **** 0.06
11303 H 68.81888233872513 20.37723121716843 188.9216481349275 H 0.0 **** 0.06
11304 H 69.16342166302036 18.730032842275875 188.34015961701184 H 0.0 **** 0.06
11305 H 69.14556543795715 19.071809501598693 190.08749719252484 H 0.0 **** 0.06
11306 C 18.316595612501544 55.27888286187449 215.69028532560966 C 0.0 **** -0.24
11307 H 17.728690742478307 55.443493930151845 216.593995577302 H 0.0 **** 0.06
11308 H 19.178270613778068 54.653679923710925 215.9270122505148 H 0.0 **** 0.06
11309 H 18.65758747196321 56.23721113795665 215.30010897647242 H 0.0 **** 0.06
11310 H 17.700338040612593 54.77959363660665 214.94273599096118 H 0.0 **** 0.06
11311 C 74.44437430277299 206.72056213337797 55.217266319708585 C 0.0 **** -0.24
11312 H 74.31320420363232 206.14811417713685 56.13535774975344 H 0.0 **** 0.06
11313 H 73.8285773704456 206.28734689942632 54.42912367082948 H 0.0 **** 0.06
11314 H 75.4918556036418 206.69312796479858 54.918187039606266 H 0.0 **** 0.06
11315 H 74.14145917754195 207.75385313134348 55.38818526704728 H 0.0 **** 0.06
11316 C 179.0462315884073 58.19182007865345 193.61493044219435 C 0.0 **** -0.24
11317 H 180.09982095697512 58.35833137565936 193.3884164608909 H 0.0 **** 0.06
11318 H 178.73350495149558 57.2330052718188 193.20253095374085 H 0.0 **** 0.06
11319 H 178.44916715924825 58.99037583939662 193.1726907684262 H 0.0 **** 0.06
11320 H 178.90361966806495 58.18766050448107 194.69562173820148 H 0.0 **** 0.06
11321 C 210.3037642237057 187.81994356661966 94.82471374439156 C 0.0 **** -0.24
11322 H 209.3238566201066 187.8359567646181 94.34838739616823 H 0.0 **** 0.06
11323 H 211.00924876846216 187.28731925515743 94.18581777340744 H 0.0 **** 0.06
11324 H 210.23201026824725 187.3127709264455 95.7872943559206 H 0.0 **** 0.06
11325 H 210.65113886464368 188.8416048435168 94.97710870398596 H 0.0 **** 0.06
11326 C 133.769387277198 151.56218052368558 20.0665912837717 C 0.0 **** -0.24
11327 H 133.02807382113093 152.06447269434284 20.687620318472426 H 0.0 **** 0.06
11328 H 134.65436514357594 152.19207212070796 19.97508777342472 H 0.0 **** 0.06
11329 H 133.34900736745493 151.3800639587883 19.077133129691745 H 0.0 **** 0.06
11330 H 134.04391288268744 150.61225039352144 20.52543502539065 H 0.0 **** 0.06
11331 C 101.03872272756011 40.18269122041994 5.165759982916896 C 0.0 **** -0.24
11332 H 102.05834577407252 40.37229892066438 4.830767603005079 H 0.0 **** 0.06
11333 H 101.05870184324921 39.54026000418082 6.046409807459639 H 0.0 **** 0.06
11334 H 100.48119576108705 39.691167776344514 4.369442523620307 H 0.0 **** 0.06
11335 H 100.55729396387791 41.12825729821651 5.416110301802398 H 0.0 **** 0.06
11336 C 126.92598093250098 146.36874667394613 175.4371865078424 C 0.0 **** -0.24
11337 H 126.24331719988726 145.76381945823135 174.84192236640916 H 0.0 **** 0.06
11338 H 126.35789499887659 147.11135501648175 175.99778026827437 H 0.0 **** 0.06
11339 H 127.63285667708504 146.87382117834943 174.77852758859757 H 0.0 **** 0.06
11340 H 127.46987859174692 145.7269593319666 176.13076454371907 H 0.0 **** 0.06
11341 C 124.01596725041708 20.40007072928975 44.229730944615824 C 0.0 **** -0.24
11342 H 124.68594609175972 21.07152286905911 43.69210047295172 H 0.0 **** 0.06
11343 H 124.32124096770247 20.341875739060526 45.27460196116971 H 0.0 **** 0.06
11344 H 124.06134455376338 19.407930802797352 43.78076279310659 H 0.0 **** 0.06
11345 H 122.99606910274662 20.77964953220514 44.1682993854476 H 0.0 **** 0.06
11346 C 18.163744663708712 84.32245904307183 179.68535468626274 C 0.0 **** -0.24
11347 H 17.367357275506976 84.27258656226724 178.94198800637423 H 0.0 **** 0.06
11348 H 19.06838125738585 84.71721576183046 179.22075492722573 H 0.0 **** 0.06
11349 H 18.360240935914447 83.32420658192564 180.0749536534185 H 0.0 **** 0.06
11350 H 17.858047369927306 84.97764550083104 180.5007576530982 H 0.0 **** 0.06
11351 C 90.24179501295983 117.50805990578571 131.1467956105859 C 0.0 **** -0.24
11352 H 89.90255115399562 118.54262177121957 131.09463731508004 H 0.0 **** 0.06
11353 H 90.22443460023958 117.17150521778537 132.18286253705236 H 0.0 **** 0.06
11354 H 91.25791011482399 117.44022660727437 130.7589788114268 H 0.0 **** 0.06
11355 H 89.58142571110302 116.87960516101178 130.54862826926887 H 0.0 **** 0.06
11356 C 50.32162457078563 155.8574681639803 190.37399553179813 C 0.0 **** -0.24
11357 H 49.79435952687484 156.09436897567298 191.2988278075685 H 0.0 **** 0.06
11358 H 49.63922616915812 155.3586558179428 189.68496953750912 H 0.0 **** 0.06
11359 H 51.162336382383074 155.19928372466995 190.59389558796326 H 0.0 **** 0.06
11360 H 50.68964140597171 156.7779193970498 189.92052527190728 H 0.0 **** 0.06
11361 C 181.51729973992929 44.0225645459999 76.10808218253673 C 0.0 **** -0.24
11362 H 180.49217155659915 43.892816852802014 76.45525056096643 H 0.0 **** 0.06
11363 H 182.20291364317748 43.88733293497255 76.94460840697984 H 0.0 **** 0.06
11364 H 181.63759424445126 45.02542486281325 75.69767438191103 H 0.0 **** 0.06
11365 H 181.73468304145968 43.28531949810176 75.33590127214514 H 0.0 **** 0.06
11366 C 195.7740374201024 144.34370551779887 112.15802862956185 C 0.0 **** -0.24
11367 H 194.91795873316465 144.61553609994712 112.77482238576913 H 0.0 **** 0.06
11368 H 195.57370731134895 143.39808311203552 111.65469350983743 H 0.0 **** 0.06
11369 H 196.6579249483994 144.2393072265047 112.78879086940209 H 0.0 **** 0.06
11370 H 195.948559669212 145.1216862157181 111.41478361257491 H 0.0 **** 0.06
11371 C 57.34803056054193 67.20017137609985 110.17630653028125 C 0.0 **** -0.24
11372 H 57.617611776929266 68.16380777473293 110.60975896529301 H 0.0 **** 0.06
11373 H 56.266588232154916 67.07015347780008 110.22414985239679 H 0.0 **** 0.06
11374 H 57.83636381344283 66.40169559748091 110.73449036491847 H 0.0 **** 0.06
11375 H 57.67124841789705 67.16699124289738 109.13580115589055 H 0.0 **** 0.06
11376 C 85.98424931327848 201.1966758038891 57.83460670238733 C 0.0 **** -0.24
11377 H 86.97406189231408 201.41859612647153 57.43792983713112 H 0.0 **** 0.06
11378 H 85.23172255083769 201.41706538596907 57.077237540805655 H 0.0 **** 0.06
11379 H 85.80162254219199 201.80756543460177 58.718556053247696 H 0.0 **** 0.06
11380 H 85.92935537048236 200.14125262290884 58.10468582187306 H 0.0 **** 0.06
11381 C 179.4863760851959 35.00177100182873 176.71721695054492 C 0.0 **** -0.24
11382 H 178.65874930214196 35.24194045683788 176.05091847983724 H 0.0 **** 0.06
11383 H 179.73638513973356 35.87746805928117 177.31613202964652 H 0.0 **** 0.06
11384 H 180.3536795452901 34.70614537625971 176.12671264259183 H 0.0 **** 0.06
11385 H 179.1982504676642 34.181234827281486 177.3744126239416 H 0.0 **** 0.06
11386 C 123.6568828832677 163.74656392413604 79.26897350552656 C 0.0 **** -0.24
11387 H 124.49483315638535 164.18294865897823 78.72500581690832 H 0.0 **** 0.06
11388 H 123.85567424539401 162.69176558635274 79.45713191687508 H 0.0 **** 0.06
11389 H 122.74798700031046 163.84572648163638 78.67534297942717 H 0.0 **** 0.06
11390 H 123.52967693556793 164.26856963317474 80.21836218019791 H 0.0 **** 0.06
11391 C 113.55212086025033 168.31430014334936 91.96560785534642 C 0.0 **** -0.24
11392 H 112.82696396975011 168.9255192304622 91.42957350396951 H 0.0 **** 0.06
11393 H 113.24527038035434 168.21533234110143 93.00703634589694 H 0.0 **** 0.06
11394 H 114.53208284469535 168.790366629357 91.91852957069297 H 0.0 **** 0.06
11395 H 113.60487963316795 167.32720209606163 91.5073502014299 H 0.0 **** 0.06
11396 C 59.05656324038574 212.21706836330452 163.8835522895439 C 0.0 **** -0.24
11397 H 58.08095014843781 212.13356722378177 164.3630997869917 H 0.0 **** 0.06
11398 H 59.48156586860438 211.22180472661876 163.75051391436008 H 0.0 **** 0.06
11399 H 59.719111204133924 212.81427458509143 164.51016625674717 H 0.0 **** 0.06
11400 H 58.94309972801881 212.69819399464797 162.91229573848113 H 0.0 **** 0.06
11401 C 147.05371378673192 70.73308696400697 104.48655164064643 C 0.0 **** -0.24
11402 H 146.37367687447073 71.06529532105624 105.27073117121209 H 0.0 **** 0.06
11403 H 147.090794832835 69.64374880281655 104.47539349646466 H 0.0 **** 0.06
11404 H 148.0500535376392 71.12917007556611 104.6786619700949 H 0.0 **** 0.06
11405 H 146.6982691983447 71.09491146967859 103.52180540121888 H 0.0 **** 0.06
11406 C 116.32938930884933 114.53027322469602 103.22879984133012 C 0.0 **** -0.24
11407 H 116.9965180989783 115.37134615011264 103.03854564915069 H 0.0 **** 0.06
11408 H 116.85549970232671 113.77582465618137 103.81339572038688 H 0.0 **** 0.06
11409 H 116.00908531992792 114.09935837588743 102.2812879153788 H 0.0 **** 0.06
11410 H 115.45766789200974 114.87709205328237 103.78444687152556 H 0.0 **** 0.06
11411 C 140.8359758907547 184.6261834236742 80.55950630328702 C 0.0 **** -0.24
11412 H 141.7543005726858 185.12299687211902 80.8705791122115 H 0.0 **** 0.06
11413 H 140.70099489814908 184.75159194342427 79.48486730193507 H 0.0 **** 0.06
11414 H 139.9889398003357 185.0650276089815 81.08556880629315 H 0.0 **** 0.06
11415 H 140.89969150024217 183.56416202118936 80.79671507288789 H 0.0 **** 0.06
11416 C 140.1375694071844 8.110175663685297 97.99419108562607 C 0.0 **** -0.24
11417 H 139.94425857498788 8.841738120413268 97.20994786950045 H 0.0 **** 0.06
11418 H 141.0833481882679 7.604858530567256 97.79422044230678 H 0.0 **** 0.06
11419 H 139.3314473892006 7.377646368629158 98.01471520539461 H 0.0 **** 0.06
11420 H 140.19312776298523 8.616762757264638 98.95734990448257 H 0.0 **** 0.06
11421 C 195.91584875203569 90.8100982144261 135.34761090829477 C 0.0 **** -0.24
11422 H 196.54686946952324 91.28501756574995 134.59706138772083 H 0.0 **** 0.06
11423 H 196.48502783373564 90.04055242140221 135.86776623004454 H 0.0 **** 0.06
11424 H 195.0511728303438 90.35716060838165 134.86091876845796 H 0.0 **** 0.06
11425 H 195.5768591674393 91.55891325803474 136.06404600128553 H 0.0 **** 0.06
11426 C 66.92184921008214 109.12675142834821 122.96895475166012 C 0.0 **** -0.24
11427 H 66.08007126098437 108.45129841131849 122.81756374525584 H 0.0 **** 0.06
11428 H 66.92381292233915 109.47842406342598 124.0006497830132 H 0.0 **** 0.06
11429 H 66.83113595366405 109.97747354629472 122.29405541940112 H 0.0 **** 0.06
11430 H 67.85345414608759 108.59812539594536 122.7635017833877 H 0.0 **** 0.06
11431 C 197.2696719119739 49.9747743113019 112.06593326258071 C 0.0 **** -0.24
11432 H 197.63754060565608 49.91366790156401 111.04167364281237 H 0.0 **** 0.06
11433 H 197.24679715018968 51.0182318235089 112.38219474184326 H 0.0 **** 0.06
11434 H 197.9301751810407 49.40943942349881 112.72291197034069 H 0.0 **** 0.06
11435 H 196.26363059030098 49.558400468280894 112.11543897733058 H 0.0 **** 0.06
11436 C 163.02879748408577 192.43900620981378 207.5519383957075 C 0.0 **** -0.24
11437 H 163.34131628755026 191.54467011883236 207.01427301197845 H 0.0 **** 0.06
11438 H 162.50417151073066 192.14980005008124 208.46267904244547 H 0.0 **** 0.06
11439 H 162.36255707158315 193.027960015656 206.92086448628288 H 0.0 **** 0.06
11440 H 163.90494216781343 193.03257145953182 207.80962016542824 H 0.0 **** 0.06
11441 C 37.17868228282306 146.70016386957474 32.60906691599081 C 0.0 **** -0.24
11442 H 37.76171262658005 147.26360570543324 31.88037009467274 H 0.0 **** 0.06
11443 H 36.545826788960085 147.38381925889826 33.17489318642177 H 0.0 **** 0.06
11444 H 37.853364771751956 146.181200277401 33.29016123470814 H 0.0 **** 0.06
11445 H 36.55612688741577 145.97149521244017 32.09019901510811 H 0.0 **** 0.06
11446 C 50.21039998731689 83.41773929664623 96.99975352828419 C 0.0 **** -0.24
11447 H 49.26153779224252 83.7998528681972 97.37421028660243 H 0.0 **** 0.06
11448 H 50.06688651963029 82.41179615996919 96.60468336309053 H 0.0 **** 0.06
11449 H 50.936574528064455 83.38934124303012 97.81245656900008 H 0.0 **** 0.06
11450 H 50.57742328504865 84.06953495137475 96.20729315042443 H 0.0 **** 0.06
11451 C 41.57556851377902 36.09723032552921 107.59770005457551 C 0.0 **** -0.24
11452 H 42.52690646294167 35.91583806574431 107.09661911606406 H 0.0 **** 0.06
11453 H 41.564316805507815 37.11170687129197 107.99760615938015 H 0.0 **** 0.06
11454 H 41.45416838179062 35.3838207881783 108.41272028379166 H 0.0 **** 0.06
11455 H 40.76036185878638 35.97730752805978 106.88476685016013 H 0.0 **** 0.06
11456 C 21.6475742825358 120.66399932025514 36.39982210222112 C 0.0 **** -0.24
11457 H 21.282948866744334 119.92457074125146 37.113101728785324 H 0.0 **** 0.06
11458 H 21.43002663854452 120.3284311700374 35.385530139175046 H 0.0 **** 0.06
11459 H 22.724226872750478 120.7845476382502 36.519794764671985 H 0.0 **** 0.06
11460 H 21.152339397351568 121.6181580310399 36.58202175329927 H 0.0 **** 0.06
11461 C 198.64388126896444 189.97492582637216 188.09090279351642 C 0.0 **** -0.24
11462 H 198.6899673253832 188.88706841280896 188.04871930327963 H 0.0 **** 0.06
11463 H 199.25568988772437 190.33273879057379 188.91940399711604 H 0.0 **** 0.06
11464 H 197.61124290857117 190.29025156916273 188.23984851106275 H 0.0 **** 0.06
11465 H 199.01976457008777 190.39094877064008 187.1556564053999 H 0.0 **** 0.06
11466 C 127.25826248419305 190.33865637088513 134.3490360323379 C 0.0 **** -0.24
11467 H 127.84742224807566 189.55863412018147 133.86709703960383 H 0.0 **** 0.06
11468 H 126.31904780047218 190.4701662338859 133.81116422509143 H 0.0 **** 0.06
11469 H 127.81694786142096 191.27514054859864 134.339076616995 H 0.0 **** 0.06
11470 H 127.04990944176704 190.05100541524425 135.38015537335718 H 0.0 **** 0.06
11471 C 53.583669989263996 195.9613260690616 40.90923195295353 C 0.0 **** -0.24
11472 H 52.850486151237504 195.2136079897489 40.60605497841178 H 0.0 **** 0.06
11473 H 54.147537030226445 196.29193689813187 40.03687618891634 H 0.0 **** 0.06
11474 H 54.26524177738321 195.52460425519217 41.63981535483907 H 0.0 **** 0.06
11475 H 53.07130113619456 196.81343200069182 41.35519020871568 H 0.0 **** 0.06
11476 C 35.15321593374273 78.81922568068029 97.91894661020889 C 0.0 **** -0.24
11477 H 35.2947255612259 79.89906218256237 97.95866163897846 H 0.0 **** 0.06
11478 H 34.35658726884833 78.58393191130949 97.21207903058699 H 0.0 **** 0.06
11479 H 34.88325176002172 78.45137873209399 98.90830452605958 H 0.0 **** 0.06
11480 H 36.07913414848697 78.34421113521495 97.594006945913 H 0.0 **** 0.06
11481 C 32.01134306422507 121.47270472139631 108.67204719627226 C 0.0 **** -0.24
11482 H 32.1803785020069 120.42567933455034 108.41962492238157 H 0.0 **** 0.06
11483 H 31.44812886175781 121.53487992323728 109.60351225372558 H 0.0 **** 0.06
11484 H 31.44637665115465 121.95178526140349 107.87290959123077 H 0.0 **** 0.06
11485 H 32.9701697627698 121.97709651202634 108.79215307358307 H 0.0 **** 0.06
11486 C 176.2257821085476 71.84733561640849 206.7299785873059 C 0.0 **** -0.24
11487 H 176.46290135001846 72.56021318172247 207.51837832292432 H 0.0 **** 0.06
11488 H 176.94407663544257 71.02707292328677 206.7532861873803 H 0.0 **** 0.06
11489 H 176.2750876920071 72.34632424274707 205.76201554489538 H 0.0 **** 0.06
11490 H 175.2209311417812 71.45401954174935 206.88601110943938 H 0.0 **** 0.06
11491 C 26.427606897756718 95.4869616880339 46.006095284190124 C 0.0 **** -0.24
11492 H 25.99538397498749 94.58598481056949 46.4416353521828 H 0.0 **** 0.06
11493 H 27.2407689663642 95.21135596278192 45.333452662070314 H 0.0 **** 0.06
11494 H 26.81482775219915 96.1253362831953 46.80111229452679 H 0.0 **** 0.06
11495 H 25.660503113732418 96.0252255895842 45.44911961282226 H 0.0 **** 0.06
11496 C 20.205561127853855 61.81422548243256 108.51617878397239 C 0.0 **** -0.24
11497 H 20.332196705396314 62.29542365348779 109.48613542859489 H 0.0 **** 0.06
11498 H 21.027973515035114 62.09901328059145 107.85962496338875 H 0.0 **** 0.06
11499 H 19.26090028014525 62.13228937168289 108.07458916746215 H 0.0 **** 0.06
11500 H 20.20029012208093 60.73237209517639 108.646207968214 H 0.0 **** 0.06
11501 C 107.49039199744736 146.20214127629498 41.87817359208972 C 0.0 **** -0.24
11502 H 107.7273488804703 145.9002004443625 42.89871478108772 H 0.0 **** 0.06
11503 H 107.54626842704583 147.2881360812808 41.79896970136684 H 0.0 **** 0.06
11504 H 106.48303754457858 145.87050000017734 41.626300194545834 H 0.0 **** 0.06
11505 H 108.2046225840631 145.75052801615504 41.191006772351756 H 0.0 **** 0.06
11506 C 213.07053711577885 208.66193143112838 103.93897279848466 C 0.0 **** -0.24
11507 H 214.01567321627695 209.08571394112715 103.59899297779361 H 0.0 **** 0.06
11508 H 213.20371911779492 207.60140372739716 104.15184053903874 H 0.0 **** 0.06
11509 H 212.31665509437767 208.78413520920975 103.16051901646142 H 0.0 **** 0.06
11510 H 212.74638112153366 209.17711715894063 104.84295547902786 H 0.0 **** 0.06
11511 C 114.86896400754826 112.1597144541056 112.79404884401414 C 0.0 **** -0.24
11512 H 114.25103148625773 112.12639103902137 113.69107452780877 H 0.0 **** 0.06
11513 H 114.98493082121108 113.19402568138759 112.47149480804008 H 0.0 **** 0.06
11514 H 114.39218105336967 111.58228054315128 112.00279338065236 H 0.0 **** 0.06
11515 H 115.8490596661391 111.73481381386586 113.01372611719732 H 0.0 **** 0.06
11516 C 150.2297874311564 206.576383775333 17.00829471385275 C 0.0 **** -0.24
11517 H 150.7460134642323 207.49233714843066 16.717514263804617 H 0.0 **** 0.06
11518 H 150.66880648565655 206.1892480408119 17.92757069110077 H 0.0 **** 0.06
11519 H 150.33216777051757 205.83502511132033 16.215287936768718 H 0.0 **** 0.06
11520 H 149.17346699455004 206.79093853227158 17.170746338731732 H 0.0 **** 0.06
11521 C 156.38498151263923 154.92135590328354 186.0958198020141 C 0.0 **** -0.24
11522 H 155.29724035723905 154.85738664336395 186.12463384903867 H 0.0 **** 0.06
11523 H 156.70206244890824 155.88434659828653 186.49656503827964 H 0.0 **** 0.06
11524 H 156.7285158251953 154.82576085998375 185.06588927173004 H 0.0 **** 0.06
11525 H 156.81153740772476 154.1186143957001 186.69767633395702 H 0.0 **** 0.06
11526 C 36.75944971541175 148.00619175981763 95.5548265000703 C 0.0 **** -0.24
11527 H 36.00637428128839 147.29808361285848 95.90325498709609 H 0.0 **** 0.06
11528 H 37.155982012392386 148.56156574958368 96.40466766305872 H 0.0 **** 0.06
11529 H 36.30411298056907 148.69968315291442 94.84728477310722 H 0.0 **** 0.06
11530 H 37.56790568463576 147.46440888648186 95.06457310633903 H 0.0 **** 0.06
11531 C 118.10142551123506 104.84131408399823 24.554439846422383 C 0.0 **** -0.24
11532 H 118.67511056980287 104.01008250205548 24.96581761390786 H 0.0 **** 0.06
11533 H 117.55229828853795 104.50233967416015 23.675629974821618 H 0.0 **** 0.06
11534 H 118.78076991142895 105.64571286560472 24.271413465395312 H 0.0 **** 0.06
11535 H 117.39953814057954 105.20397262580018 25.305060941984067 H 0.0 **** 0.06
11536 C 87.41490157892531 92.14054752402116 112.39434728119723 C 0.0 **** -0.24
11537 H 86.92057330806364 91.39175953573262 111.77545129200648 H 0.0 **** 0.06
11538 H 87.01766231779419 92.09344484179799 113.40902381514825 H 0.0 **** 0.06
11539 H 87.23421126379333 93.13196710725184 111.97946976964492 H 0.0 **** 0.06
11540 H 88.48744964294417 91.94534768592929 112.41434285857967 H 0.0 **** 0.06
11541 C 188.41785359711685 192.6723342336062 200.14242224490815 C 0.0 **** -0.24
11542 H 189.07289100690426 193.541713280241 200.21161204523105 H 0.0 **** 0.06
11543 H 188.32869174611145 192.3682682175738 199.09850069897652 H 0.0 **** 0.06
11544 H 187.43301593246295 192.92773986716085 200.53292047181185 H 0.0 **** 0.06
11545 H 188.83902320906088 191.8536303416434 200.72463887732923 H 0.0 **** 0.06
11546 C 117.97502363419464 192.5985876673062 6.220587322604956 C 0.0 **** -0.24
11547 H 118.3823589311274 192.01034973947063 5.397818068060587 H 0.0 **** 0.06
11548 H 118.04748947043332 193.6596361195743 5.978258929886351 H 0.0 **** 0.06
11549 H 118.54239877477589 192.3935844985772 7.128515343007052 H 0.0 **** 0.06
11550 H 116.92997713992695 192.33179926663968 6.375906024692256 H 0.0 **** 0.06
11551 C 134.99754810060762 49.21474449274861 3.832429164270593 C 0.0 **** -0.24
11552 H 134.4518718539619 48.31552523958716 3.5452509659911584 H 0.0 **** 0.06
11553 H 135.54189222120408 49.02826053073085 4.758934086328537 H 0.0 **** 0.06
11554 H 134.29490500138087 50.03448431720936 3.982630476890705 H 0.0 **** 0.06
11555 H 135.70221925513522 49.47938685565816 3.0442317802682624 H 0.0 **** 0.06
11556 C 10.316065034295605 180.99520529926812 68.2205006310659 C 0.0 **** -0.24
11557 H 9.37616490980588 180.57427543086965 68.57602126290796 H 0.0 **** 0.06
11558 H 10.178272870694997 182.0517204667512 67.99252005808066 H 0.0 **** 0.06
11559 H 10.632727500014425 180.46730083523295 67.320639026929 H 0.0 **** 0.06
11560 H 11.078072103955947 180.88528134558624 68.99293840125551 H 0.0 **** 0.06
11561 C 79.37538399804443 39.29597651563397 9.916164208497648 C 0.0 **** -0.24
11562 H 78.95233998205309 40.265013739960665 10.182396753892718 H 0.0 **** 0.06
11563 H 78.57501049392503 38.625119353864676 9.600190950977705 H 0.0 **** 0.06
11564 H 79.88509032051242 38.87221104616215 10.780795580299369 H 0.0 **** 0.06
11565 H 80.08693821055577 39.42248997465347 9.099696757768129 H 0.0 **** 0.06
11566 C 187.6616742691252 184.1433118585323 19.654271751072685 C 0.0 **** -0.24
11567 H 186.7545118920773 184.47607495536533 20.15868257546164 H 0.0 **** 0.06
11568 H 188.07034181830102 183.2786321773499 20.176932267711038 H 0.0 **** 0.06
11569 H 188.39438316080947 184.94917104052615 19.655146097447513 H 0.0 **** 0.06
11570 H 187.42492452273814 183.8678298764272 18.626774128288602 H 0.0 **** 0.06
11571 C 42.83227172578094 215.0428872237046 20.993380428748395 C 0.0 **** -0.24
11572 H 41.94015326430289 215.5215017499309 20.588349642511417 H 0.0 **** 0.06
11573 H 43.46029572028897 214.69252663123345 20.173359404855063 H 0.0 **** 0.06
11574 H 42.53875570622435 214.19596247012186 21.614212900222427 H 0.0 **** 0.06
11575 H 43.388575841531164 215.76037065914517 21.59622732488998 H 0.0 **** 0.06
11576 C 80.7869158222905 198.21649519830726 113.8825480728999 C 0.0 **** -0.24
11577 H 81.70649428591048 198.69284503606275 113.54025076780896 H 0.0 **** 0.06
11578 H 80.16144570529474 197.97594121569483 113.02354921873307 H 0.0 **** 0.06
11579 H 80.25142402093803 198.89656234891436 114.54521717780635 H 0.0 **** 0.06
11580 H 81.0321923682485 197.30143987461173 114.42226681333459 H 0.0 **** 0.06
11581 C 57.71452765689011 115.60211194366916 105.94025972352365 C 0.0 **** -0.24
11582 H 58.291750347131114 116.19041973400964 105.22631990700928 H 0.0 **** 0.06
11583 H 58.254077975857555 114.68315031827039 106.17338877017151 H 0.0 **** 0.06
11584 H 56.74493664700816 115.35404170049019 105.5072093997767 H 0.0 **** 0.06
11585 H 57.56757670640593 116.18010819030506 106.85293047622373 H 0.0 **** 0.06
11586 C 99.28279859711533 185.7317041756371 61.44117829377791 C 0.0 **** -0.24
11587 H 98.4769531163394 185.2275845247442 60.908474284305825 H 0.0 **** 0.06
11588 H 99.51947925099792 185.1782689059015 62.35001370799294 H 0.0 **** 0.06
11589 H 98.96922071031763 186.7426755945887 61.70099136534064 H 0.0 **** 0.06
11590 H 100.16592414362471 185.77779813719428 60.80396345398006 H 0.0 **** 0.06
11591 C 192.30844420318803 41.74189906148054 77.49779066620687 C 0.0 **** -0.24
11592 H 191.52514045391632 42.49441167229354 77.58842257441836 H 0.0 **** 0.06
11593 H 193.16492498323066 42.03463982940366 78.10682324993093 H 0.0 **** 0.06
11594 H 192.61464491782172 41.66098534488977 76.45542115010846 H 0.0 **** 0.06
11595 H 191.9295188363613 40.78046777835047 77.84165191466184 H 0.0 **** 0.06
11596 C 24.294664693983805 184.2252407286282 185.65524179565867 C 0.0 **** -0.24
11597 H 24.726709810487677 185.22578977477252 185.6656223674403 H 0.0 **** 0.06
11598 H 24.09380945916749 183.92687699785165 184.62633490290781 H 0.0 **** 0.06
11599 H 23.36431829522651 184.2254438073234 186.22252449507354 H 0.0 **** 0.06
11600 H 24.99518916539826 183.52353156111775 186.10777670339223 H 0.0 **** 0.06
11601 C 124.6630669848472 54.41710290593706 120.18116861024266 C 0.0 **** -0.24
11602 H 125.41030350152988 53.626427322498174 120.24328812778761 H 0.0 **** 0.06
11603 H 124.0589406634669 54.27690214562 119.28461003600476 H 0.0 **** 0.06
11604 H 125.16230001320889 55.385851375325586 120.13552924439652 H 0.0 **** 0.06
11605 H 124.02140982395787 54.38045748824351 121.06109038221719 H 0.0 **** 0.06
11606 C 58.03672231572176 38.720766577542975 149.19667759711882 C 0.0 **** -0.24
11607 H 58.81637981679381 38.64561068158201 149.95485100276557 H 0.0 **** 0.06
11608 H 58.46547765905001 38.52334277828061 148.2139478053886 H 0.0 **** 0.06
11609 H 57.60839444856069 39.72298142897159 149.21285682589894 H 0.0 **** 0.06
11610 H 57.25697776880281 37.98879294264202 149.40569952281504 H 0.0 **** 0.06
11611 C 175.04741372507732 36.23390874610493 126.49078107683596 C 0.0 **** -0.24
11612 H 175.0115672396076 35.99266572807005 127.55251830882463 H 0.0 **** 0.06
11613 H 174.11169713253528 35.93379185358896 126.01782604028307 H 0.0 **** 0.06
11614 H 175.87670568801133 35.70101475204683 126.02546401290869 H 0.0 **** 0.06
11615 H 175.1898082535888 37.30698107909495 126.36654868296563 H 0.0 **** 0.06
11616 C 107.70344650887682 97.59960496023568 55.331939021063704 C 0.0 **** -0.24
11617 H 107.35396280357566 97.6306991194909 54.30037059627685 H 0.0 **** 0.06
11618 H 106.90411466097163 97.93021326244069 55.99608802908455 H 0.0 **** 0.06
11619 H 108.56531284220114 98.25819074589766 55.443958394054675 H 0.0 **** 0.06
11620 H 107.99067399037148 96.57948465857446 55.58904036306191 H 0.0 **** 0.06
11621 C 13.59105032164507 150.36495034566752 129.68870920308353 C 0.0 **** -0.24
11622 H 12.63675873905683 150.52587240566163 130.1898816250723 H 0.0 **** 0.06
11623 H 13.685574425459578 149.31407035509682 129.41429786210506 H 0.0 **** 0.06
11624 H 14.403873317606127 150.64044208846042 130.36016225586354 H 0.0 **** 0.06
11625 H 13.637575403000412 150.98075666839867 128.7906629223188 H 0.0 **** 0.06
11626 C 121.70914469581437 8.204733188652028 113.31725212617657 C 0.0 **** -0.24
11627 H 121.06406359066246 8.893827470116321 112.7703978417813 H 0.0 **** 0.06
11628 H 121.88288055562957 7.314391337143718 112.71328410732137 H 0.0 **** 0.06
11629 H 121.22620706713325 7.922310148364858 114.25285333065658 H 0.0 **** 0.06
11630 H 122.66031159509554 8.691426986190805 113.53208417151082 H 0.0 **** 0.06
11631 C 121.68910836284617 145.22531654826247 104.74353135709428 C 0.0 **** -0.24
11632 H 121.59704447112377 144.4050662935323 104.03113686820085 H 0.0 **** 0.06
11633 H 122.10451826055545 146.0985368858025 104.23999188037722 H 0.0 **** 0.06
11634 H 122.35073045138633 144.9262327255496 105.55751123624945 H 0.0 **** 0.06
11635 H 120.70652275545923 145.4699160368379 105.14530956422963 H 0.0 **** 0.06
11636 C 28.15854836277262 164.1364085439223 18.7424844827554 C 0.0 **** -0.24
11637 H 27.427114026131832 164.53650276420012 18.04028111923583 H 0.0 **** 0.06
11638 H 29.031074634309434 163.7801577589874 18.19473597952583 H 0.0 **** 0.06
11639 H 27.715570207930853 163.30930568690616 19.29767846941155 H 0.0 **** 0.06
11640 H 28.460434582718406 164.91966796559535 19.437242362848565 H 0.0 **** 0.06
11641 C 157.75019987427737 82.63037046865628 108.9760853207102 C 0.0 **** -0.24
11642 H 156.92827361746453 82.46900588201737 108.27854404145604 H 0.0 **** 0.06
11643 H 158.51060756146012 81.8647236423484 108.8240254178559 H 0.0 **** 0.06
11644 H 157.37450034249275 82.57177536985728 109.99821575942615 H 0.0 **** 0.06
11645 H 158.18453392640117 83.61435251208076 108.80376474758815 H 0.0 **** 0.06
11646 C 188.1206315060528 150.14548119312923 3.1814269487895785 C 0.0 **** -0.24
11647 H 187.6585903542749 150.8448576863388 3.877519338776267 H 0.0 **** 0.06
11648 H 188.9803019715243 150.61846370086045 2.708148646188306 H 0.0 **** 0.06
11649 H 187.3950241126714 149.86236844400628 2.4181679903691133 H 0.0 **** 0.06
11650 H 188.44522361284984 149.2559187932767 3.7212119399950723 H 0.0 **** 0.06
11651 C 119.08674232120872 149.27024490889437 132.76857767344626 C 0.0 **** -0.24
11652 H 118.71740371634131 149.8291754774309 133.62812682464005 H 0.0 **** 0.06
11653 H 119.86465210354511 149.84742353921206 132.26780891250087 H 0.0 **** 0.06
11654 H 118.2668399609061 149.08719580417795 132.07408269078218 H 0.0 **** 0.06
11655 H 119.49816251629962 148.3184263486471 133.1036209207087 H 0.0 **** 0.06
11656 C 25.74664014506405 153.56041339860718 48.2016173011603 C 0.0 **** -0.24
11657 H 25.73717529045122 154.59722481844926 47.86508849623385 H 0.0 **** 0.06
11658 H 26.504963264019068 153.0068243597995 47.64792572654062 H 0.0 **** 0.06
11659 H 24.76835525531 153.11273452106389 48.02622506719487 H 0.0 **** 0.06
11660 H 25.976272549495334 153.52729676922337 49.26696907227273 H 0.0 **** 0.06
11661 C 17.425758705476895 44.8960773626406 155.75863842067605 C 0.0 **** -0.24
11662 H 17.085048099155742 45.725261225919155 155.13748178714872 H 0.0 **** 0.06
11663 H 17.22386029557525 43.954294070262904 155.24912945545105 H 0.0 **** 0.06
11664 H 16.89731409814459 44.91544218934342 156.7114035675279 H 0.0 **** 0.06
11665 H 18.49718920758022 44.99202245332697 155.9346649989879 H 0.0 **** 0.06
11666 C 35.715266890394545 102.81078339910061 95.10671119922097 C 0.0 **** -0.24
11667 H 36.55768490477031 103.46960792575737 95.31764073863974 H 0.0 **** 0.06
11668 H 36.08200148814714 101.80103005777812 94.91986078705372 H 0.0 **** 0.06
11669 H 35.18303284645053 103.17314591157674 94.2274106461158 H 0.0 **** 0.06
11670 H 35.03972459515889 102.79950710740911 95.96164779182152 H 0.0 **** 0.06
11671 C 42.35299764652342 156.85873610292333 211.3508344820263 C 0.0 **** -0.24
11672 H 41.84485005224616 156.1028132347368 211.94880836210132 H 0.0 **** 0.06
11673 H 41.753633890513186 157.0859763178085 210.46759376834353 H 0.0 **** 0.06
11674 H 43.32790601539847 156.48204494398288 211.0414098878885 H 0.0 **** 0.06
11675 H 42.48391202489444 157.76386264177324 211.9440810705479 H 0.0 **** 0.06
11676 C 172.31075558367047 99.13079908614014 57.71221362964775 C 0.0 **** -0.24
11677 H 171.92791582778125 100.12145043752412 57.95878566581057 H 0.0 **** 0.06
11678 H 172.05656873593014 98.88948938873062 56.67977388593408 H 0.0 **** 0.06
11679 H 171.86451446539868 98.39205192139178 58.378494831226774 H 0.0 **** 0.06
11680 H 173.394023305572 99.1202045969141 57.8318001356197 H 0.0 **** 0.06
11681 C 9.09605897416077 203.08399690280106 134.39336087788695 C 0.0 **** -0.24
11682 H 9.104029294827214 204.12731924839727 134.7117696175073 H 0.0 **** 0.06
11683 H 10.11311422803179 202.76870215909673 134.15825454340114 H 0.0 **** 0.06
11684 H 8.46850988001303 202.97954214252155 133.50790478901882 H 0.0 **** 0.06
11685 H 8.698050515279533 202.4632012685446 135.19557978261759 H 0.0 **** 0.06
11686 C 160.62827251634178 68.05525290395946 131.37875254437824 C 0.0 **** -0.24
11687 H 159.76997514399412 67.43828635868692 131.6429192008842 H 0.0 **** 0.06
11688 H 160.71401748357334 68.11400034752438 130.29316574662187 H 0.0 **** 0.06
11689 H 161.5352797764894 67.61138443946578 131.79167843154795 H 0.0 **** 0.06
11690 H 160.49506928934005 69.0563129903785 131.78878880926186 H 0.0 **** 0.06
11691 C 147.0429904820877 130.04413190057392 212.35661851257055 C 0.0 **** -0.24
11692 H 147.24815671427933 130.28183989363419 213.40135335797243 H 0.0 **** 0.06
11693 H 147.34802642822336 130.88069340969287 211.7282244929451 H 0.0 **** 0.06
11694 H 145.97581472660073 129.86201271276104 212.22947038394443 H 0.0 **** 0.06
11695 H 147.60062737832118 129.15220394295017 212.0714891703662 H 0.0 **** 0.06
11696 C 6.997960563674354 1.8499784083617357 78.68386668345369 C 0.0 **** -0.24
11697 H 7.254939736314952 2.074908306610972 79.71964195126446 H 0.0 **** 0.06
11698 H 6.537306324209567 2.726323252586475 78.2260276821865 H 0.0 **** 0.06
11699 H 6.299172835769042 1.014478533247832 78.65619376899468 H 0.0 **** 0.06
11700 H 7.901987432059286 1.5867511945527468 78.134634497928 H 0.0 **** 0.06
11701 C 156.30061163167915 173.1970722331912 191.96709511820933 C 0.0 **** -0.24
11702 H 155.7155375812626 173.6568072190022 192.76255046355976 H 0.0 **** 0.06
11703 H 156.28495974141924 172.11256155321092 192.08484815132374 H 0.0 **** 0.06
11704 H 157.32959848383393 173.55286351031089 192.0207865044613 H 0.0 **** 0.06
11705 H 155.87354498153576 173.46351153228557 191.00050559541114 H 0.0 **** 0.06
11706 C 213.98842346370913 111.79278394997795 200.58620034773563 C 0.0 **** -0.24
11707 H 214.13113761753874 111.25388188159184 199.64999612141153 H 0.0 **** 0.06
11708 H 213.49645888846584 111.14190948962903 201.3091141967459 H 0.0 **** 0.06
11709 H 213.36852293507314 112.67211749759292 200.40816382924055 H 0.0 **** 0.06
11710 H 214.95656383882283 112.10422564575856 200.97653660830775 H 0.0 **** 0.06
11711 C 95.72906470736602 194.65809696752265 23.66581513270262 C 0.0 **** -0.24
11712 H 96.12764718718186 193.64356953726082 23.70495926628331 H 0.0 **** 0.06
11713 H 95.53624796471875 195.0113532477488 24.679296685581875 H 0.0 **** 0.06
11714 H 94.80026346412079 194.6611617222422 23.09575462116095 H 0.0 **** 0.06
11715 H 96.45450139583248 195.31453110615274 23.18355586938918 H 0.0 **** 0.06
11716 C 130.64951919315445 55.2656392448672 137.8042792159943 C 0.0 **** -0.24
11717 H 130.0862432200691 56.16015638014113 137.5371941716586 H 0.0 **** 0.06
11718 H 131.43387354545985 55.52997642829564 138.51444205817904 H 0.0 **** 0.06
11719 H 131.09851100237222 54.839197957406896 136.9074875383319 H 0.0 **** 0.06
11720 H 129.97832831765305 54.53616849187938 138.25769775081176 H 0.0 **** 0.06
11721 C 18.24172190862852 99.23072798658917 151.40579826309863 C 0.0 **** -0.24
11722 H 17.875919881971697 99.22123316874742 150.37910071230453 H 0.0 **** 0.06
11723 H 18.443625334725 100.25818873255254 151.7104317773605 H 0.0 **** 0.06
11724 H 19.158449521902213 98.64554046219384 151.47096853012 H 0.0 **** 0.06
11725 H 17.48669972305369 98.79791806467254 152.0637824917314 H 0.0 **** 0.06
11726 C 97.41680530978802 178.05797413610958 8.73481240971472 C 0.0 **** -0.24
11727 H 98.15930592196851 178.77336494714353 8.379991356099708 H 0.0 **** 0.06
11728 H 97.64061252304323 177.07096237181884 8.326630719259413 H 0.0 **** 0.06
11729 H 96.42547230341991 178.37039334520765 8.40782276032428 H 0.0 **** 0.06
11730 H 97.44458150598753 178.01533624138995 9.823058985005844 H 0.0 **** 0.06
11731 C 9.564491196668811 144.5569286552834 52.58042238450646 C 0.0 **** -0.24
11732 H 10.434138637623903 144.20675391466193 53.13604825513255 H 0.0 **** 0.06
11733 H 9.655080410373728 144.25569803500053 51.537055318105644 H 0.0 **** 0.06
11734 H 9.507874499900893 145.64383075165404 52.64159037134449 H 0.0 **** 0.06
11735 H 8.66037753157741 144.1219358336361 53.007704353637706 H 0.0 **** 0.06
11736 C 109.68741465196244 55.59820274757516 141.72544151839747 C 0.0 **** -0.24
11737 H 109.57520212730542 55.53163467173806 142.8080800520969 H 0.0 **** 0.06
11738 H 110.7461777069431 55.664062010096416 141.47416180644893 H 0.0 **** 0.06
11739 H 109.17017135362578 56.48581473017941 141.36109899277204 H 0.0 **** 0.06
11740 H 109.25717744753591 54.71065991635106 141.2613792285954 H 0.0 **** 0.06
11741 C 164.8156152290763 163.48097246027336 178.2888534020588 C 0.0 **** -0.24
11742 H 164.4803936409464 164.16662858332248 177.5107201856256 H 0.0 **** 0.06
11743 H 164.19247508641365 163.60521188349722 179.17547569728805 H 0.0 **** 0.06
11744 H 165.85384580993673 163.69867604450582 178.54150447527184 H 0.0 **** 0.06
11745 H 164.7355938007983 162.45550097921316 177.92891738020126 H 0.0 **** 0.06
11746 C 149.3006310724533 42.18359901819903 92.31761716766884 C 0.0 **** -0.24
11747 H 148.34698534783087 42.51568281301246 92.72784310558926 H 0.0 **** 0.06
11748 H 149.8694240006842 43.04782107789319 91.97653220762076 H 0.0 **** 0.06
11749 H 149.12070187318494 41.51217038826398 91.47816305281508 H 0.0 **** 0.06
11750 H 149.8646781663125 41.6580542781322 93.08781047411502 H 0.0 **** 0.06
11751 C 190.35120790590392 106.61441770188736 1.1845280697300495 C 0.0 **** -0.24
11752 H 190.38677684963724 105.94797502017406 0.3226010758756672 H 0.0 **** 0.06
11753 H 190.45147541841416 106.0301356599013 2.098838217403369 H 0.0 **** 0.06
11754 H 189.39825322120026 107.14445976029214 1.1935247139290652 H 0.0 **** 0.06
11755 H 191.16677219758594 107.33378127141384 1.1211873019428538 H 0.0 **** 0.06
11756 C 5.936169260797385 153.4870955136954 200.1265652268222 C 0.0 **** -0.24
11757 H 4.861618701950398 153.53981181327663 199.95130762852943 H 0.0 **** 0.06
11758 H 6.466569149198804 153.8476018042614 199.24482188511027 H 0.0 **** 0.06
11759 H 6.221370774577196 152.4537648571279 200.32470152317558 H 0.0 **** 0.06
11760 H 6.194942796286597 154.10624823098408 200.98519221065823 H 0.0 **** 0.06
11761 C 200.09536162048136 80.52243009174668 112.78703266630119 C 0.0 **** -0.24
11762 H 200.19245756854838 79.78294631666347 113.58190954969892 H 0.0 **** 0.06
11763 H 200.29713355980164 81.51565115242767 113.18721903915137 H 0.0 **** 0.06
11764 H 199.0827585598089 80.4905289678934 112.38390054160787 H 0.0 **** 0.06
11765 H 200.8094231894496 80.2984932462025 111.9944082251648 H 0.0 **** 0.06
11766 C 16.526782005958495 147.1498926379669 170.19522516042645 C 0.0 **** -0.24
11767 H 17.12193573445998 147.49200438801444 169.34860084869632 H 0.0 **** 0.06
11768 H 15.478556444369204 147.09334217744532 169.9029866588053 H 0.0 **** 0.06
11769 H 16.636450468495383 147.85051632084077 171.0226309917993 H 0.0 **** 0.06
11770 H 16.87151936212362 146.16324582027056 170.50676708474498 H 0.0 **** 0.06
11771 C 210.415602089695 61.11003713322316 47.81595979854876 C 0.0 **** -0.24
11772 H 210.2703119780084 61.4396527612966 48.844425377737934 H 0.0 **** 0.06
11773 H 209.7433415493666 60.27907382720238 47.602308479190526 H 0.0 **** 0.06
11774 H 211.44736042845201 60.78764400159318 47.68061389595562 H 0.0 **** 0.06
11775 H 210.20017280750022 61.93548531543911 47.13726129062576 H 0.0 **** 0.06
11776 C 202.7685184655532 211.8896769700296 40.392419334699696 C 0.0 **** -0.24
11777 H 202.58045015600763 210.82467721364674 40.52612406838324 H 0.0 **** 0.06
11778 H 203.10087758324656 212.0738996003723 39.37053011103876 H 0.0 **** 0.06
11779 H 203.54060387595197 212.2135849913473 41.090360485737335 H 0.0 **** 0.06
11780 H 201.85085565815453 212.44692127529314 40.58221106808372 H 0.0 **** 0.06
11781 C 213.8053381630165 131.65874366681305 28.730618235158715 C 0.0 **** -0.24
11782 H 214.54511744612347 132.0422397149398 29.431987252730266 H 0.0 **** 0.06
11783 H 212.85586990343313 132.17191686909467 28.88613170960741 H 0.0 **** 0.06
11784 H 213.6714361778541 130.5894803106159 28.892288449076148 H 0.0 **** 0.06
11785 H 214.14876543011985 131.83124291640507 27.710343827374743 H 0.0 **** 0.06
11786 C 197.96443968250102 195.57467886095728 47.385785074517344 C 0.0 **** -0.24
11787 H 197.6554291115026 194.77549343812572 48.059221230959594 H 0.0 **** 0.06
11788 H 198.91408351097476 195.98843694716402 47.72615545341287 H 0.0 **** 0.06
11789 H 197.2078153483474 196.35846474309517 47.3795864313644 H 0.0 **** 0.06
11790 H 198.08272803356616 195.17547940306122 46.37830167510057 H 0.0 **** 0.06
11791 C 198.01215024008798 49.476320369572164 163.59726291530137 C 0.0 **** -0.24
11792 H 197.43931959305675 49.647149569509935 164.50893970956363 H 0.0 **** 0.06
11793 H 198.39310775035537 50.42720033748853 163.2249877549053 H 0.0 **** 0.06
11794 H 197.36870108002364 49.02109457245109 162.8441448671181 H 0.0 **** 0.06
11795 H 198.84687838191965 48.80846049232757 163.8123030657929 H 0.0 **** 0.06
11796 C 152.42688893641605 82.60527384995191 95.67767859491794 C 0.0 **** -0.24
11797 H 152.86497433180335 83.29448083370767 94.95509982929518 H 0.0 **** 0.06
11798 H 151.89801493654255 83.17097270237889 96.44505284877273 H 0.0 **** 0.06
11799 H 153.2180815534391 82.01447582227365 96.14046481825228 H 0.0 **** 0.06
11800 H 151.72825821249683 81.94122633514803 95.1678941696298 H 0.0 **** 0.06
11801 C 11.244812895220164 49.94731369542019 111.65524784230617 C 0.0 **** -0.24
11802 H 10.212176521620009 49.61387969397961 111.75497252526647 H 0.0 **** 0.06
11803 H 11.747200361188035 49.34778653979177 110.89589866963588 H 0.0 **** 0.06
11804 H 11.758323034153875 49.82979615724392 112.60909588522831 H 0.0 **** 0.06
11805 H 11.261457660040833 50.99633732792478 111.36008940592565 H 0.0 **** 0.06
11806 C 156.20091454153265 95.4819183771795 66.25445542256288 C 0.0 **** -0.24
11807 H 155.40553829021644 94.7379700196585 66.21672497414922 H 0.0 **** 0.06
11808 H 157.06855700186912 95.06097669649519 66.76174802672838 H 0.0 **** 0.06
11809 H 155.8510065477043 96.36028975801067 66.79747223845169 H 0.0 **** 0.06
11810 H 156.47700603315639 95.76918989868498 65.23922504447854 H 0.0 **** 0.06
11811 C 193.1771234358601 159.85480046386078 92.77593693895064 C 0.0 **** -0.24
11812 H 192.32465368229444 160.31220641479666 92.27458752191795 H 0.0 **** 0.06
11813 H 193.9594390831274 159.64617765864 92.04484397451294 H 0.0 **** 0.06
11814 H 192.8635120107517 158.92409412468265 93.2484543634465 H 0.0 **** 0.06
11815 H 193.56154341208713 160.53639781365234 93.53465129203592 H 0.0 **** 0.06
11816 C 105.08624065990365 132.97225448457175 169.7393185435442 C 0.0 **** -0.24
11817 H 104.71177783143925 133.9913382829809 169.8319842096518 H 0.0 **** 0.06
11818 H 106.14533382533118 132.94870579360997 169.999224856014 H 0.0 **** 0.06
11819 H 104.95614742542732 132.62910775768785 168.71353923472387 H 0.0 **** 0.06
11820 H 104.532074123111 132.3190594276868 170.41401315493925 H 0.0 **** 0.06
11821 C 121.39044814942649 111.24539349423277 151.93239349992177 C 0.0 **** -0.24
11822 H 122.22332452653005 111.9235482326013 151.74685583195497 H 0.0 **** 0.06
11823 H 120.79098816327978 111.62437691024739 152.760414297048 H 0.0 **** 0.06
11824 H 121.77515945164872 110.25727274203886 152.1837273822245 H 0.0 **** 0.06
11825 H 120.77162757112403 111.17783262593794 151.03702777803966 H 0.0 **** 0.06
11826 C 108.18164642532632 212.2073288303849 48.528625978090076 C 0.0 **** -0.24
11827 H 108.88968239631045 212.410309589385 49.33228449803886 H 0.0 **** 0.06
11828 H 107.17260679551502 212.4441900078378 48.86476423885745 H 0.0 **** 0.06
11829 H 108.23613094454278 211.1540663757607 48.2546592585812 H 0.0 **** 0.06
11830 H 108.43033470785942 212.82093018654118 47.66228386088039 H 0.0 **** 0.06
11831 C 75.82241843319349 188.99728549786997 188.52886875376612 C 0.0 **** -0.24
11832 H 76.74645996063646 188.48668838906923 188.80053580947555 H 0.0 **** 0.06
11833 H 75.62920097229915 188.8556620436378 187.46459812094201 H 0.0 **** 0.06
11834 H 75.91945171093272 190.06165745927814 188.74236817708254 H 0.0 **** 0.06
11835 H 74.99561983962849 188.58419773052125 189.1065578712229 H 0.0 **** 0.06
11836 C 101.3993165241594 120.94681625188737 15.541535269631595 C 0.0 **** -0.24
11837 H 100.77883918065119 120.80589607636621 14.65622712227514 H 0.0 **** 0.06
11838 H 100.7613158424915 121.10087945986275 16.412140694325444 H 0.0 **** 0.06
11839 H 102.03997201322208 121.81716464459079 15.401601904911558 H 0.0 **** 0.06
11840 H 102.0170195037778 120.06164476524337 15.694700580215681 H 0.0 **** 0.06
11841 C 56.701543349161796 122.65106678051318 99.33475410796659 C 0.0 **** -0.24
11842 H 56.83111180348715 123.34548424372248 100.16588440313446 H 0.0 **** 0.06
11843 H 56.64276638689324 123.21031491870254 98.40119322655055 H 0.0 **** 0.06
11844 H 55.78249307442553 122.08274591403399 99.47688122529406 H 0.0 **** 0.06
11845 H 57.549846279199414 121.968538070147 99.29680921702267 H 0.0 **** 0.06
11846 C 153.57719137901762 181.81156058110793 57.92778721928748 C 0.0 **** -0.24
11847 H 153.47282237225056 182.68856611986325 58.566583377623246 H 0.0 **** 0.06
11848 H 153.05624019080864 181.9851676599867 56.985407994215734 H 0.0 **** 0.06
11849 H 153.14571938583083 180.94478985307106 58.42816863015848 H 0.0 **** 0.06
11850 H 154.63411776796283 181.62995063042527 57.73101175694015 H 0.0 **** 0.06
11851 C 194.85018600708807 185.30688282663255 147.41814265700407 C 0.0 **** -0.24
11852 H 194.32216515720052 185.20473866913937 146.47017288630042 H 0.0 **** 0.06
11853 H 194.16616227084006 185.69322073573193 148.1744572098046 H 0.0 **** 0.06
11854 H 195.68506105268307 185.99764882369522 147.29662250879954 H 0.0 **** 0.06
11855 H 195.22663420484773 184.33403957050024 147.73133246884868 H 0.0 **** 0.06
11856 C 120.64549254870553 58.60853371844013 184.16843970725668 C 0.0 **** -0.24
11857 H 121.16444314229352 58.4418024725411 183.22444176654557 H 0.0 **** 0.06
11858 H 120.91401686002047 59.58910737179423 184.56167391732077 H 0.0 **** 0.06
11859 H 120.93580128740558 57.838278362747644 184.8832667265487 H 0.0 **** 0.06
11860 H 119.56961475333469 58.564725175667206 184.00322804193422 H 0.0 **** 0.06
11861 C 37.70768167594457 74.77822327401066 112.27047717545621 C 0.0 **** -0.24
11862 H 38.2820646900185 73.85384738543661 112.21741597336448 H 0.0 **** 0.06
11863 H 37.48826267972595 75.12805657802932 111.26142905450759 H 0.0 **** 0.06
11864 H 38.28490752464842 75.53566964328428 112.80017278953908 H 0.0 **** 0.06
11865 H 36.77374147264919 74.59454826640109 112.80173260063752 H 0.0 **** 0.06
11866 C 170.00824799661314 212.45457782724654 27.644144438220337 C 0.0 **** -0.24
11867 H 169.7260498252047 213.29007488634414 28.285871807690683 H 0.0 **** 0.06
11868 H 169.297736896374 212.37225081561255 26.821995202008594 H 0.0 **** 0.06
11869 H 170.00027365646966 211.53195565557178 28.225095285282123 H 0.0 **** 0.06
11870 H 171.0086326489657 212.62525260118247 27.24668399783664 H 0.0 **** 0.06
11871 C 164.67920642737 91.43436302873785 46.1932927169275 C 0.0 **** -0.24
11872 H 165.09666808351034 92.10925457051086 45.44480000405818 H 0.0 **** 0.06
11873 H 165.4881069420855 90.99545922658133 46.77771683799203 H 0.0 **** 0.06
11874 H 164.11935413197963 90.64291616898181 45.695269215561794 H 0.0 **** 0.06
11875 H 164.0140079546982 91.99136629179732 46.85295663900743 H 0.0 **** 0.06
11876 C 195.80038675726033 128.28512398684973 35.39693895943033 C 0.0 **** -0.24
11877 H 195.14854736810076 128.51912376494028 36.23819732567364 H 0.0 **** 0.06
11878 H 196.19081290351778 127.27345549912631 35.50924407494979 H 0.0 **** 0.06
11879 H 196.62958577614316 128.99370684618202 35.372009215192236 H 0.0 **** 0.06
11880 H 195.23443216196222 128.35548197910896 34.46813635246312 H 0.0 **** 0.06
11881 C 153.21121414224075 178.39143843765407 32.621300340617324 C 0.0 **** -0.24
11882 H 154.19696927566218 178.71136558656667 32.28488756088535 H 0.0 **** 0.06
11883 H 153.18107602583808 177.3031139868938 32.67521437621697 H 0.0 **** 0.06
11884 H 152.45539792503246 178.740599289515 31.917489507303955 H 0.0 **** 0.06
11885 H 153.01026005126158 178.80938679316301 33.60750607711164 H 0.0 **** 0.06
11886 C 77.01524510120497 149.96523648496037 133.31689116807087 C 0.0 **** -0.24
11887 H 76.27767416834142 150.06333014403782 132.51990628626055 H 0.0 **** 0.06
11888 H 76.51431671313681 150.01414783097545 134.2838578536651 H 0.0 **** 0.06
11889 H 77.7410047782789 150.77511001300758 133.24161235613388 H 0.0 **** 0.06
11890 H 77.52729389814841 149.00805289143938 133.2200834782767 H 0.0 **** 0.06
11891 C 206.12807204366555 107.34144666757139 100.04012322545303 C 0.0 **** -0.24
11892 H 205.283416074406 107.32437219792409 100.72924360793267 H 0.0 **** 0.06
11893 H 206.99316257311688 107.77926046692558 100.53680075333783 H 0.0 **** 0.06
11894 H 205.87051620388925 107.93712984833674 99.16421702099852 H 0.0 **** 0.06
11895 H 206.36357154963412 106.32369107310645 99.7294615700955 H 0.0 **** 0.06
11896 C 6.184479848023869 43.09167236556418 22.27554897815442 C 0.0 **** -0.24
11897 H 6.181219476064115 43.54394157743562 23.266830497847167 H 0.0 **** 0.06
11898 H 5.385494995240386 43.52754323031817 21.674746222128974 H 0.0 **** 0.06
11899 H 6.02686124228012 42.01632736430052 22.365302305470593 H 0.0 **** 0.06
11900 H 7.1441030087973445 43.27847032664364 21.793650601001886 H 0.0 **** 0.06
11901 C 212.57167601910677 159.9862301687932 62.82374742100188 C 0.0 **** -0.24
11902 H 211.51716457285644 159.93927363778542 62.54880404639857 H 0.0 **** 0.06
11903 H 212.88995570008217 161.02816929538136 62.86121796813666 H 0.0 **** 0.06
11904 H 213.16373231687567 159.45041094532024 62.081291866944014 H 0.0 **** 0.06
11905 H 212.7130230225947 159.52635684560323 63.80180605277366 H 0.0 **** 0.06
11906 C 175.17508315793344 154.10870173392607 175.09565015509526 C 0.0 **** -0.24
11907 H 174.31477851668902 153.7431887342682 175.65596283631518 H 0.0 **** 0.06
11908 H 174.97397437853573 155.11947480139077 174.740115053394 H 0.0 **** 0.06
11909 H 175.35875262102718 153.45395195131323 174.2447010609783 H 0.0 **** 0.06
11910 H 176.05189015294624 154.1184964110996 175.742836131649 H 0.0 **** 0.06
11911 C 20.872818660711957 12.239185695632727 195.5727665002361 C 0.0 **** -0.24
11912 H 21.05165117154756 12.178689029087707 194.49931821541796 H 0.0 **** 0.06
11913 H 19.86780991016539 11.87777068721931 195.7944323939497 H 0.0 **** 0.06
11914 H 20.966161946758376 13.275027979556285 195.8976340355629 H 0.0 **** 0.06
11915 H 21.604053568772045 11.625947125464336 196.0982787094821 H 0.0 **** 0.06
11916 C 58.62877794276642 79.38874970045124 19.63962672846486 C 0.0 **** -0.24
11917 H 59.23077517450923 78.56710017493309 20.02827893107093 H 0.0 **** 0.06
11918 H 58.593791145549574 79.33111775034708 18.55220197200157 H 0.0 **** 0.06
11919 H 59.072977927861075 80.3381953293695 19.939235664932568 H 0.0 **** 0.06
11920 H 57.61732673888707 79.31905633549398 20.040101991834945 H 0.0 **** 0.06
11921 C 51.965316059296384 193.28494267315796 78.59212620928021 C 0.0 **** -0.24
11922 H 52.58108553588974 193.44871960597135 77.70774043081319 H 0.0 **** 0.06
11923 H 50.91305915184148 193.3852034599014 78.32546478135025 H 0.0 **** 0.06
11924 H 52.219130861267516 194.0241373922133 79.35220078310017 H 0.0 **** 0.06
11925 H 52.148349833348874 192.2835545506093 78.98188716649896 H 0.0 **** 0.06
11926 C 119.64239804431831 38.37426102235182 154.7430736222882 C 0.0 **** -0.24
11927 H 120.45000280363395 39.006043117152615 154.3722096474437 H 0.0 **** 0.06
11928 H 119.03767880337496 38.02806723431985 153.90447380772082 H 0.0 **** 0.06
11929 H 119.01947324982665 38.94631177542544 155.4302153556792 H 0.0 **** 0.06
11930 H 120.0651880908526 37.51477684260192 155.26438128290442 H 0.0 **** 0.06
11931 C 143.17665634067112 41.61169669699524 201.4886899105645 C 0.0 **** -0.24
11932 H 143.0566493406315 41.03948462210309 202.40886424487329 H 0.0 **** 0.06
11933 H 142.23917033876876 41.60259086916045 200.93178127005302 H 0.0 **** 0.06
11934 H 143.96441189054843 41.16498160844321 200.8836205524833 H 0.0 **** 0.06
11935 H 143.44393858627336 42.63977333359577 201.73313370299863 H 0.0 **** 0.06
11936 C 93.72632654620772 117.31037469314917 25.952536190990884 C 0.0 **** -0.24
11937 H 93.40719617211762 117.06133389386271 24.94036840575704 H 0.0 **** 0.06
11938 H 93.47488666957416 118.349301475932 26.166942984002205 H 0.0 **** 0.06
11939 H 94.80372981109572 117.17162921430771 26.038414139594465 H 0.0 **** 0.06
11940 H 93.21825693639484 116.658635426386 26.664084049529876 H 0.0 **** 0.06
11941 C 112.95869803870086 79.01394613677626 149.0878415769414 C 0.0 **** -0.24
11942 H 111.90505522184439 79.08820786179437 148.8186907871514 H 0.0 **** 0.06
11943 H 113.50298239077607 79.85527590723983 148.65732453835471 H 0.0 **** 0.06
11944 H 113.3669825561765 78.08068992355958 148.70096340879462 H 0.0 **** 0.06
11945 H 113.05850752784416 79.03320492017879 150.1721829753737 H 0.0 **** 0.06
11946 C 125.69074775505227 88.20311147939549 167.91755810587742 C 0.0 **** -0.24
11947 H 125.1711555084069 88.96894020834837 168.4938457075504 H 0.0 **** 0.06
11948 H 125.61764655318224 88.43765704549418 166.85536756888706 H 0.0 **** 0.06
11949 H 125.23365429883093 87.23267680989437 168.10922774228533 H 0.0 **** 0.06
11950 H 126.73959204088668 88.17551811714236 168.21369053291141 H 0.0 **** 0.06
11951 C 27.062898648581267 70.85521901787445 162.38628910952548 C 0.0 **** -0.24
11952 H 26.942192545967714 70.55105148575831 163.42623588407875 H 0.0 **** 0.06
11953 H 27.594410185866494 70.07473325064353 161.83986745388088 H 0.0 **** 0.06
11954 H 27.63363119371799 71.78256095987075 162.34315661611475 H 0.0 **** 0.06
11955 H 26.082471881972253 71.00993265372921 161.93731677193642 H 0.0 **** 0.06
11956 C 152.80433787977904 112.68628493847415 196.36489102866622 C 0.0 **** -0.24
11957 H 152.68557118816852 113.72339419875364 196.05054567901934 H 0.0 **** 0.06
11958 H 152.95944695112075 112.05643860493431 195.48949860729365 H 0.0 **** 0.06
11959 H 151.90661700158245 112.36165492640278 196.89164688093842 H 0.0 **** 0.06
11960 H 153.6647496727046 112.60498372345519 197.0293869293115 H 0.0 **** 0.06
11961 C 93.66698233985495 87.24694505024547 112.19518053684311 C 0.0 **** -0.24
11962 H 93.0115333339394 87.47125417123408 111.35351186125132 H 0.0 **** 0.06
11963 H 94.37178086111633 88.06696270139628 112.33417780105975 H 0.0 **** 0.06
11964 H 94.2157332463063 86.3269562268535 111.99262646629347 H 0.0 **** 0.06
11965 H 93.06984138979787 87.12355726445008 113.09772707179496 H 0.0 **** 0.06
11966 C 37.404922417454586 175.47932923854404 194.1409492173271 C 0.0 **** -0.24
11967 H 36.97638905987546 174.8111469766357 193.39340806332018 H 0.0 **** 0.06
11968 H 37.88794600690065 174.88977781313582 194.91962980052253 H 0.0 **** 0.06
11969 H 36.614121364001775 176.08606267547103 194.58127790683938 H 0.0 **** 0.06
11970 H 38.14076749567678 176.12993166816938 193.6673305390471 H 0.0 **** 0.06
11971 C 127.91603090971113 144.63368981089582 78.122233535019 C 0.0 **** -0.24
11972 H 127.71428345883056 143.59967835067744 78.40300998217725 H 0.0 **** 0.06
11973 H 127.2140428655555 144.94281101420722 77.34834336857199 H 0.0 **** 0.06
11974 H 128.93502630298588 144.71370989687404 77.74235022751714 H 0.0 **** 0.06
11975 H 127.80197065480671 145.27516924515783 78.9954835065912 H 0.0 **** 0.06
11976 C 111.85928365025173 104.15319733802936 75.25420259885146 C 0.0 **** -0.24
11977 H 111.61355570187548 103.28408109661792 74.6439535744741 H 0.0 **** 0.06
11978 H 111.98530182167467 105.02464243910758 74.61076106034523 H 0.0 **** 0.06
11979 H 112.78588650800258 103.96586338840474 75.79648690266981 H 0.0 **** 0.06
11980 H 111.0530736387826 104.3388551869238 75.964556548095 H 0.0 **** 0.06
11981 C 93.29556851482245 207.39907499395014 181.58781594893424 C 0.0 **** -0.24
11982 H 94.25877495822762 207.0763152965162 181.98447787265877 H 0.0 **** 0.06
11983 H 93.45472901139802 208.1489326867039 180.81293369148614 H 0.0 **** 0.06
11984 H 92.69803717994655 207.82883146526174 182.39204590544347 H 0.0 **** 0.06
11985 H 92.77112268878177 206.5432639716866 181.16398793056413 H 0.0 **** 0.06
11986 C 111.63254261904517 152.60243402735358 105.3466690315003 C 0.0 **** -0.24
11987 H 112.17072015655883 153.47180342946484 105.72522804716588 H 0.0 **** 0.06
11988 H 112.22791783737036 152.11441227475638 104.57497138608947 H 0.0 **** 0.06
11989 H 110.68006707254882 152.9202689443809 104.92385061079254 H 0.0 **** 0.06
11990 H 111.4526988133937 151.90273829838839 106.16372854760293 H 0.0 **** 0.06
11991 C 168.15234923806133 185.2421974890297 29.098576413513 C 0.0 **** -0.24
11992 H 167.88229755196525 186.29637505047916 29.154993437069038 H 0.0 **** 0.06
11993 H 167.26068042048396 184.63146517638575 29.239153417609003 H 0.0 **** 0.06
11994 H 168.87905627385106 185.0105777307737 29.877491886745986 H 0.0 **** 0.06
11995 H 168.58741316762158 185.03164349420865 28.12082820738334 H 0.0 **** 0.06
11996 C 130.36742889907669 13.374501093350005 197.75450781250785 C 0.0 **** -0.24
11997 H 129.58336953292928 13.608219887122857 198.47534315242893 H 0.0 **** 0.06
11998 H 130.57356946285012 12.304602913176652 197.7775963816015 H 0.0 **** 0.06
11999 H 131.2722416969238 13.925731325727824 198.01021304404708 H 0.0 **** 0.06
12000 H 130.03875113604732 13.660794174606949 196.75498875210195 H 0.0 **** 0.06
12001 C 210.3367324613896 30.68796521852488 74.62626044167844 C 0.0 **** -0.24
12002 H 210.7063594375768 31.130269752385715 75.55092130929431 H 0.0 **** 0.06
12003 H 211.16953925541355 30.535925050809595 73.9384444806668 H 0.0 **** 0.06
12004 H 209.60530287283478 31.355176660589578 74.17113763234498 H 0.0 **** 0.06
12005 H 209.86673314821294 29.728457082226242 74.84546569740083 H 0.0 **** 0.06
12006 C 59.1513241006366 83.1645340862832 66.97479566510671 C 0.0 **** -0.24
12007 H 59.05626260662322 84.01829024762924 66.30394705043642 H 0.0 **** 0.06
12008 H 58.18110267439562 82.67805214328996 67.08053997021253 H 0.0 **** 0.06
12009 H 59.4950310382134 83.50532681237218 67.95068396334906 H 0.0 **** 0.06
12010 H 59.870351230652886 82.45660326260804 66.5624352964658 H 0.0 **** 0.06
12011 C 210.9358311326948 206.54586163667938 92.68374633608515 C 0.0 **** -0.24
12012 H 211.70205268831822 205.95850018864817 93.18928979245597 H 0.0 **** 0.06
12013 H 210.15147381871267 206.807711401394 93.39335145736011 H 0.0 **** 0.06
12014 H 210.50854960429416 205.95976305123037 91.86944227836919 H 0.0 **** 0.06
12015 H 211.38146292541882 207.45547951517665 92.28190962012913 H 0.0 **** 0.06
12016 C 187.93371054597796 211.9839785651813 159.50015328042178 C 0.0 **** -0.24
12017 H 187.3657223633207 212.1811695077281 160.40937783716444 H 0.0 **** 0.06
12018 H 187.2812910091319 212.09276795967668 158.63355374276586 H 0.0 **** 0.06
12019 H 188.32878670502913 210.96857423305272 159.53209084966528 H 0.0 **** 0.06
12020 H 188.75796267108336 212.69220788102837 159.42622913683775 H 0.0 **** 0.06
12021 C 122.51006952297463 81.03396156628001 94.51822578811327 C 0.0 **** -0.24
12022 H 122.53809096315187 80.2692051262283 93.74172496310858 H 0.0 **** 0.06
12023 H 121.844505991052 80.71195693231384 95.31977388707166 H 0.0 **** 0.06
12024 H 122.14343343625104 81.96850239289866 94.0937972817651 H 0.0 **** 0.06
12025 H 123.51344540221613 81.18467224783855 94.91656894791 H 0.0 **** 0.06
12026 C 150.6283886900021 113.23340226544197 52.60884540868699 C 0.0 **** -0.24
12027 H 150.84601347993924 112.18875758447665 52.386685384766906 H 0.0 **** 0.06
12028 H 150.6669851138086 113.81614753155488 51.68836704829266 H 0.0 **** 0.06
12029 H 151.3674731280746 113.61637336059233 53.31221264027323 H 0.0 **** 0.06
12030 H 149.6339416080262 113.31207337405375 53.04856008958035 H 0.0 **** 0.06
12031 C 67.24440394763087 58.33407407965312 69.61867283307532 C 0.0 **** -0.24
12032 H 66.32088695659974 57.829345371260885 69.90071612634887 H 0.0 **** 0.06
12033 H 68.0980711980099 57.727340326832746 69.92241537693161 H 0.0 **** 0.06
12034 H 67.29358093510729 59.30431645405612 70.1126085472032 H 0.0 **** 0.06
12035 H 67.26517805598343 58.475590208211514 68.53757210803991 H 0.0 **** 0.06
12036 C 69.41295955096882 159.24873594608715 144.43880101929614 C 0.0 **** -0.24
12037 H 68.4750057605944 158.7787131627614 144.7336898103132 H 0.0 **** 0.06
12038 H 70.19725999178642 158.96696827218676 145.14186143291687 H 0.0 **** 0.06
12039 H 69.29383394835777 160.33191439404916 144.44236005974682 H 0.0 **** 0.06
12040 H 69.68582256798457 158.9159508727286 143.43708997592398 H 0.0 **** 0.06
12041 C 108.20987470802696 173.88591454759145 4.451117075440976 C 0.0 **** -0.24
12042 H 107.26216569040439 173.36379351386316 4.325987733547834 H 0.0 **** 0.06
12043 H 108.9496776276987 173.46563521559068 3.769722136975588 H 0.0 **** 0.06
12044 H 108.55413556134825 173.7715493827754 5.4786301889005244 H 0.0 **** 0.06
12045 H 108.07290801255421 174.9444972245004 4.230697079925619 H 0.0 **** 0.06
12046 C 116.59229149052895 140.4756244605528 83.04965542889619 C 0.0 **** -0.24
12047 H 116.74672916048401 141.00215718595888 82.1079689482957 H 0.0 **** 0.06
12048 H 116.58494730312607 141.19251576882846 83.87027168498253 H 0.0 **** 0.06
12049 H 117.39985517461112 139.7587094822336 83.20030720907596 H 0.0 **** 0.06
12050 H 115.63901492363517 139.94729197940575 83.01919685301539 H 0.0 **** 0.06
12051 C 139.16836432246282 17.859878829318745 192.30212623197113 C 0.0 **** -0.24
12052 H 140.1314678442264 17.43728769671077 192.01874759878226 H 0.0 **** 0.06
12053 H 138.44240268659212 17.057067381959314 192.43010520113683 H 0.0 **** 0.06
12054 H 138.8256095866211 18.53766099246053 191.52034770444058 H 0.0 **** 0.06
12055 H 139.27312823755534 18.408738589418988 193.23844222360373 H 0.0 **** 0.06
12056 C 121.459174968325 161.03537500422667 166.19147723262392 C 0.0 **** -0.24
12057 H 121.98696238873102 160.20284255719366 166.65619681712775 H 0.0 **** 0.06
12058 H 122.16265882094022 161.63442353009424 165.61356247837068 H 0.0 **** 0.06
12059 H 121.00474530625867 161.65444165565785 166.96584879847052 H 0.0 **** 0.06
12060 H 120.68230972720123 160.6501857900393 165.53121985973632 H 0.0 **** 0.06
12061 C 2.5127642500681944 196.59418744319453 168.6924907405603 C 0.0 **** -0.24
12062 H 2.8293333959611786 196.86780695340468 169.6987941092572 H 0.0 **** 0.06
12063 H 2.065525695428171 195.5991475017683 168.7106667351532 H 0.0 **** 0.06
12064 H 3.3768147303922262 196.59265302313653 168.02777609859896 H 0.0 **** 0.06
12065 H 1.778899703035485 197.3166903632403 168.33432666300715 H 0.0 **** 0.06
12066 C 52.764490400085094 53.296567471773386 140.3937986660514 C 0.0 **** -0.24
12067 H 52.56611648182985 54.33896700333531 140.64502995022843 H 0.0 **** 0.06
12068 H 53.191551639647955 52.78979518044747 141.25911807352117 H 0.0 **** 0.06
12069 H 53.46630058364134 53.250223760206836 139.56153677789376 H 0.0 **** 0.06
12070 H 51.83214316500124 52.80832228307838 140.1102172754222 H 0.0 **** 0.06
12071 C 86.58741513720965 180.33699722105547 16.943109574252162 C 0.0 **** -0.24
12072 H 87.43570891004596 180.94855909644835 17.24779770349957 H 0.0 **** 0.06
12073 H 85.8327042766012 180.9695315917322 16.475257106643596 H 0.0 **** 0.06
12074 H 86.16027149881585 179.84587788207637 17.817825102384745 H 0.0 **** 0.06
12075 H 86.9213973322217 179.58206528306854 16.230144057821178 H 0.0 **** 0.06
12076 C 118.39859467494615 211.7673272569537 40.056105400022034 C 0.0 **** -0.24
12077 H 119.29244535070951 211.34478135947253 40.51431611565317 H 0.0 **** 0.06
12078 H 118.61739838103198 212.7718559074228 39.691650610391264 H 0.0 **** 0.06
12079 H 117.5987502104259 211.81338600550293 40.79461440252487 H 0.0 **** 0.06
12080 H 118.08671571960956 211.13854504366645 39.221699266819314 H 0.0 **** 0.06
12081 C 2.6534711429629567 119.63497615800618 192.25797390601105 C 0.0 **** -0.24
12082 H 1.8374674423749866 119.07035604686338 192.70877677160684 H 0.0 **** 0.06
12083 H 2.352785506312671 120.67755348575285 192.1415700909941 H 0.0 **** 0.06
12084 H 2.889996808441424 119.21430302091018 191.27998674892504 H 0.0 **** 0.06
12085 H 3.5324480891698897 119.57887979597386 192.90008515964632 H 0.0 **** 0.06
12086 C 9.7788070867648 54.5220126082412 182.62282323728576 C 0.0 **** -0.24
12087 H 10.358661861974156 54.752689279257595 183.5168315480998 H 0.0 **** 0.06
12088 H 10.164295385389778 53.61196017573309 182.16336543192494 H 0.0 **** 0.06
12089 H 9.857055688755509 55.347841118028896 181.91546860802765 H 0.0 **** 0.06
12090 H 8.733020070663883 54.375809120478834 182.89668492997922 H 0.0 **** 0.06
12091 C 49.0510205379349 208.31677749807832 167.6635596364473 C 0.0 **** -0.24
12092 H 48.13776638099054 207.8169264548288 167.98648674451624 H 0.0 **** 0.06
12093 H 48.95757308362134 208.6022395274625 166.61514504211218 H 0.0 **** 0.06
12094 H 49.89639345777434 207.63950652995834 167.78143153417318 H 0.0 **** 0.06
12095 H 49.21157219915938 209.20838431412875 168.26999478805212 H 0.0 **** 0.06
12096 C 120.10166562719144 178.75888710919335 201.66665969076786 C 0.0 **** -0.24
12097 H 119.39326284349295 179.3774426531092 201.11654728926607 H 0.0 **** 0.06
12098 H 119.55853121262317 178.08461105900324 202.32849799823845 H 0.0 **** 0.06
12099 H 120.75757490303238 179.39816433330773 202.2584500305844 H 0.0 **** 0.06
12100 H 120.69790455487589 178.17729212771002 200.9644769984065 H 0.0 **** 0.06
12101 C 137.39217207988094 73.13291139981793 162.95921581469526 C 0.0 **** -0.24
12102 H 136.81463493724112 72.22956935438312 162.76493477794932 H 0.0 **** 0.06
12103 H 137.1638748333463 73.50114677572155 163.96021593417692 H 0.0 **** 0.06
12104 H 137.1337155642584 73.89499355295489 162.22382805133634 H 0.0 **** 0.06
12105 H 138.45534374265128 72.90525544091419 162.88969676886273 H 0.0 **** 0.06
12106 C 183.54108272873682 12.472507693119582 160.2460903331677 C 0.0 **** -0.24
12107 H 183.62560754487257 13.34639795973277 160.89195989576962 H 0.0 **** 0.06
12108 H 182.73947193094992 12.631304107747269 159.52276881877975 H 0.0 **** 0.06
12109 H 183.3157656710399 11.593338309446068 160.85097675247704 H 0.0 **** 0.06
12110 H 184.4822376212295 12.31869209895217 159.71806157407983 H 0.0 **** 0.06
12111 C 13.551709994371791 176.00072771117033 1.0048202598113107 C 0.0 **** -0.24
12112 H 14.021577546011216 175.5626724582238 1.8857273068259417 H 0.0 **** 0.06
12113 H 14.073758155002878 176.9201374583729 0.7351063120394485 H 0.0 **** 0.06
12114 H 12.508063388782745 176.22624311626413 1.2227140222723278 H 0.0 **** 0.06
12115 H 13.60594191997113 175.29544950891147 0.17619327900501958 H 0.0 **** 0.06
12116 C 27.711195113417645 104.85000313089766 160.67942284172676 C 0.0 **** -0.24
12117 H 28.042560431663176 105.04854465286205 159.66022490971886 H 0.0 **** 0.06
12118 H 26.86070291549248 104.16838773279183 160.65898730259718 H 0.0 **** 0.06
12119 H 27.416454412985814 105.7860873740038 161.15349703642002 H 0.0 **** 0.06
12120 H 28.52577572684433 104.3978500892404 161.24411228444737 H 0.0 **** 0.06
12121 C 144.30311824184702 90.90810107355033 96.83852776468323 C 0.0 **** -0.24
12122 H 143.7080667712736 90.46037270037279 96.04370126961301 H 0.0 **** 0.06
12123 H 143.65354710741343 91.17168448051687 97.67388893504251 H 0.0 **** 0.06
12124 H 144.79539798326954 91.80558162767655 96.46291298691291 H 0.0 **** 0.06
12125 H 145.0554896197945 90.19433104952613 97.17450812776413 H 0.0 **** 0.06
12126 C 179.8859358563357 55.0745975304182 190.99346763172412 C 0.0 **** -0.24
12127 H 180.1456099160626 55.71025101888978 191.8398423462835 H 0.0 **** 0.06
12128 H 180.4570165566795 54.14708128070134 191.046774258935 H 0.0 **** 0.06
12129 H 180.12133384255162 55.59376513044174 190.06452903097482 H 0.0 **** 0.06
12130 H 178.82062412779607 54.847419183418026 191.02325091915094 H 0.0 **** 0.06
12131 C 83.1631863171263 193.10055280386152 114.98157466508972 C 0.0 **** -0.24
12132 H 82.98122179541008 194.15307344005555 114.76868894888106 H 0.0 **** 0.06
12133 H 82.61339779815671 192.81050356629464 115.87844043317817 H 0.0 **** 0.06
12134 H 84.22949927430261 192.94172842338588 115.1421661626684 H 0.0 **** 0.06
12135 H 82.82872706951593 192.49557043170097 114.1387938641317 H 0.0 **** 0.06
12136 C 123.19752896373346 190.73815294970612 207.26312100555393 C 0.0 **** -0.24
12137 H 123.56841871902178 190.55921028313588 206.25337130076213 H 0.0 **** 0.06
12138 H 122.37420579560712 191.45098026391173 207.22684010133494 H 0.0 **** 0.06
12139 H 124.00202848860472 191.14125595106603 207.87827840159667 H 0.0 **** 0.06
12140 H 122.84736264842384 189.7991742984636 207.6927997165339 H 0.0 **** 0.06
12141 C 30.332208284205223 148.57061205789836 80.10848651271368 C 0.0 **** -0.24
12142 H 30.59984646331891 149.62611310457106 80.15488132051854 H 0.0 **** 0.06
12143 H 29.39709297785396 148.456547524881 79.56032341659864 H 0.0 **** 0.06
12144 H 30.211109621723935 148.18223794634014 81.11994032157548 H 0.0 **** 0.06
12145 H 31.122590140714877 148.01838565466983 79.60022904339775 H 0.0 **** 0.06
12146 C 78.8348692232242 30.646948794271225 70.88461424797794 C 0.0 **** -0.24
12147 H 78.06557295425579 31.198806656343493 70.34453806230925 H 0.0 **** 0.06
12148 H 78.36373036223652 29.97461421830576 71.60227959083232 H 0.0 **** 0.06
12149 H 79.48184636236248 31.347661717162282 71.41214824105225 H 0.0 **** 0.06
12150 H 79.42836208587131 30.06576585537732 70.17772969082137 H 0.0 **** 0.06
12151 C 169.60441550762016 114.86771331019243 42.16694187073114 C 0.0 **** -0.24
12152 H 168.779034033577 114.1668767201961 42.296203816375 H 0.0 **** 0.06
12153 H 169.8580172737511 114.93844953321896 41.10860275229851 H 0.0 **** 0.06
12154 H 170.47092388691144 114.5150906819877 42.72623575183087 H 0.0 **** 0.06
12155 H 169.30791810130427 115.84966770839047 42.53619515939539 H 0.0 **** 0.06
12156 C 200.85890128370653 145.7267563078791 189.50777637720466 C 0.0 **** -0.24
12157 H 201.53833363074415 145.59987082282356 190.35002211287517 H 0.0 **** 0.06
12158 H 200.39132669574025 144.7700323972632 189.27112361145308 H 0.0 **** 0.06
12159 H 201.41635415613575 146.08279651122098 188.64136665503534 H 0.0 **** 0.06
12160 H 200.08888781091645 146.4522378109088 189.76897738491073 H 0.0 **** 0.06
12161 C 161.60330068001412 10.255611881695415 197.96630492022882 C 0.0 **** -0.24
12162 H 160.754738341335 9.879969255687115 198.53747538486675 H 0.0 **** 0.06
12163 H 162.33267332857469 9.456127007979234 197.8318964683512 H 0.0 **** 0.06
12164 H 162.06609921878922 11.082379903446139 198.50541371430225 H 0.0 **** 0.06
12165 H 161.26123362609883 10.603735779946419 196.99232288888814 H 0.0 **** 0.06
12166 C 27.841241789246766 10.262430253106913 60.23204513055589 C 0.0 **** -0.24
12167 H 28.276496093500867 9.295318375042427 59.97976265473396 H 0.0 **** 0.06
12168 H 28.149118012473394 11.00351716100144 59.49414298970723 H 0.0 **** 0.06
12169 H 28.183250012191465 10.568193519665726 61.22056793203916 H 0.0 **** 0.06
12170 H 26.753571878752794 10.181242769447408 60.23300463704902 H 0.0 **** 0.06
12171 C 96.16797065634051 7.0981159782787415 64.84691481764489 C 0.0 **** -0.24
12172 H 96.86699572854633 6.522840157958171 65.45499691461352 H 0.0 **** 0.06
12173 H 96.55460297624825 7.182210653507553 63.83138457815396 H 0.0 **** 0.06
12174 H 96.04949350223569 8.092781153407387 65.2755142493934 H 0.0 **** 0.06
12175 H 95.2023269723104 6.593483285736951 64.82846903442648 H 0.0 **** 0.06
12176 C 91.11603176514116 59.02320382808975 109.40609506169967 C 0.0 **** -0.24
12177 H 91.20924135943604 59.29745282777898 110.45684745513249 H 0.0 **** 0.06
12178 H 91.81560031587718 58.21988350560149 109.17643351041211 H 0.0 **** 0.06
12179 H 91.33923346712372 59.88973155196558 108.78342352240729 H 0.0 **** 0.06
12180 H 90.09812792775277 58.68592609168991 109.20819190588544 H 0.0 **** 0.06
12181 C 200.69949111584026 18.35504069926469 71.96547454709538 C 0.0 **** -0.24
12182 H 200.9091183074745 17.412732894994235 72.47132291722862 H 0.0 **** 0.06
12183 H 200.4989386845095 18.163922610154827 70.91039646180572 H 0.0 **** 0.06
12184 H 201.560865224812 19.01620998589152 72.05814033692705 H 0.0 **** 0.06
12185 H 199.82911118356452 18.825887659974228 72.42194803117697 H 0.0 **** 0.06
12186 C 43.20018666468354 32.74836713558483 155.09451916870182 C 0.0 **** -0.24
12187 H 42.47415498976994 31.96932379412084 155.32980333223782 H 0.0 **** 0.06
12188 H 42.8971982373983 33.68131872267932 155.5700583255794 H 0.0 **** 0.06
12189 H 43.246049064579495 32.88839319341821 154.01484261141098 H 0.0 **** 0.06
12190 H 44.181528630792 32.452640269948375 155.4657154860978 H 0.0 **** 0.06
12191 C 110.20681111284249 64.57208444481407 7.907913417911189 C 0.0 **** -0.24
12192 H 109.8810955123396 65.60028223937412 8.06529441620728 H 0.0 **** 0.06
12193 H 109.7674358345216 63.931572291634396 8.671729272471936 H 0.0 **** 0.06
12194 H 111.29383059330108 64.52262233872568 7.97197032089484 H 0.0 **** 0.06
12195 H 109.88495709286731 64.23600114184539 6.922016289765736 H 0.0 **** 0.06
12196 C 195.9773475667052 207.15407888566955 32.00257242170865 C 0.0 **** -0.24
12197 H 195.34158415646124 206.2785480286882 31.874600843687105 H 0.0 **** 0.06
12198 H 195.5902928370739 207.97558166761445 31.399500322543076 H 0.0 **** 0.06
12199 H 196.99212671194783 206.91587467488233 31.681816752963115 H 0.0 **** 0.06
12200 H 195.9872033484607 207.44533430017867 33.052193428933776 H 0.0 **** 0.06
12201 C 44.012288069439705 28.680114307085788 138.2588253701644 C 0.0 **** -0.24
12202 H 44.43363968265618 27.864617031515508 137.6705676400734 H 0.0 **** 0.06
12203 H 43.11644164924667 29.058147018215237 137.7650039268717 H 0.0 **** 0.06
12204 H 44.74607585889447 29.48199857394694 138.34586705640487 H 0.0 **** 0.06
12205 H 43.753395893048435 28.314959428478602 139.25331615135025 H 0.0 **** 0.06
12206 C 64.29219321229823 116.81211477822718 45.538806129319255 C 0.0 **** -0.24
12207 H 63.61836436675975 116.95758330963916 46.38346389390972 H 0.0 **** 0.06
12208 H 64.53191649714614 115.75222182233362 45.44420785239663 H 0.0 **** 0.06
12209 H 65.20815128829588 117.3785459126775 45.70308847082657 H 0.0 **** 0.06
12210 H 63.80930336983886 117.158265826071 44.62519243532762 H 0.0 **** 0.06
12211 C 159.39210883447012 172.68322697663754 148.13712203869324 C 0.0 **** -0.24
12212 H 158.32528212811167 172.46602469483463 148.0864359457497 H 0.0 **** 0.06
12213 H 159.64879603725018 173.4187976188013 147.37461128362304 H 0.0 **** 0.06
12214 H 159.95703045567012 171.76721880601278 147.96358894785453 H 0.0 **** 0.06
12215 H 159.63574606911192 173.0793977625354 149.1220234109661 H 0.0 **** 0.06
12216 C 87.92163838542035 152.60200648232848 209.58151609518902 C 0.0 **** -0.24
12217 H 87.85545693177693 153.0819235747975 210.55769268170005 H 0.0 **** 0.06
12218 H 88.16034713403292 153.3493871379523 208.82524272163977 H 0.0 **** 0.06
12219 H 86.96704627953324 152.1334922330978 209.34182995045194 H 0.0 **** 0.06
12220 H 88.70375753703183 151.84212801566946 209.60219240622885 H 0.0 **** 0.06
12221 C 201.76271651888868 128.0369029186346 18.576205547444573 C 0.0 **** -0.24
12222 H 200.89881687134232 128.27017971846772 17.95352948683768 H 0.0 **** 0.06
12223 H 202.66580960150526 128.42222594607802 18.1023055640203 H 0.0 **** 0.06
12224 H 201.84597750479816 126.95620798787304 18.69217198464503 H 0.0 **** 0.06
12225 H 201.64004823109553 128.4989639027781 19.555417609730682 H 0.0 **** 0.06
12226 C 135.54236839533883 58.428821693140165 190.14337189616472 C 0.0 **** -0.24
12227 H 136.28968985480827 58.625239847552464 189.3745392208107 H 0.0 **** 0.06
12228 H 134.54896214080645 58.43599067223778 189.69513005161463 H 0.0 **** 0.06
12229 H 135.60094248750988 59.199899893643405 190.91201656897448 H 0.0 **** 0.06
12230 H 135.73139635397894 57.45473576132852 190.59333872498541 H 0.0 **** 0.06
12231 C 59.49639928282164 19.880410739030538 12.323499589528183 C 0.0 **** -0.24
12232 H 60.32103657090855 19.220354524762797 12.050960958221538 H 0.0 **** 0.06
12233 H 59.88981078698026 20.862367602005747 12.587975030414214 H 0.0 **** 0.06
12234 H 58.9631891207448 19.46003731867833 13.17662927484622 H 0.0 **** 0.06
12235 H 58.81423707874839 19.976478724096665 11.478665398747296 H 0.0 **** 0.06
12236 C 173.36699517153085 131.1337810333104 53.19552616581808 C 0.0 **** -0.24
12237 H 173.81319669670603 131.33782744082737 52.22232300358563 H 0.0 **** 0.06
12238 H 172.44974713464813 131.71392528524 53.302632861006146 H 0.0 **** 0.06
12239 H 174.06769965238806 131.4132392422148 53.982442603789266 H 0.0 **** 0.06
12240 H 173.13673813852694 130.07186408958074 53.273424928194245 H 0.0 **** 0.06
12241 C 39.54635570800774 68.5148725578099 122.93700716268374 C 0.0 **** -0.24
12242 H 38.97239973465767 68.57075995903328 122.01142880562749 H 0.0 **** 0.06
12243 H 40.60656044533802 68.6297224263894 122.71311311052976 H 0.0 **** 0.06
12244 H 39.37611406440686 67.54770386546461 123.4104790710047 H 0.0 **** 0.06
12245 H 39.227558511058135 69.31036381631958 123.61069859414816 H 0.0 **** 0.06
12246 C 185.21572908919606 78.23592134782272 158.49600488845465 C 0.0 **** -0.24
12247 H 184.6252980548992 78.29551084060832 157.5814610511581 H 0.0 **** 0.06
12248 H 185.79376201914621 79.15201672883835 158.61556371798477 H 0.0 **** 0.06
12249 H 185.89294026376285 77.3832219995444 158.43502943737826 H 0.0 **** 0.06
12250 H 184.5505281392971 78.11085471169118 159.3507330203593 H 0.0 **** 0.06
12251 C 206.72658627700008 8.112588323762651 51.80555486042036 C 0.0 **** -0.24
12252 H 207.45501317519148 7.876080090567825 52.58131464952788 H 0.0 **** 0.06
12253 H 206.0382665949437 8.873786435978786 52.17524339956509 H 0.0 **** 0.06
12254 H 206.16894603097552 7.21324292083807 51.544985614783286 H 0.0 **** 0.06
12255 H 207.24425145316096 8.488056193490934 50.922754892128125 H 0.0 **** 0.06
12256 C 10.709165964652684 94.38036268769895 143.56747219899012 C 0.0 **** -0.24
12257 H 11.55071554924281 93.91363369030688 144.07960058130112 H 0.0 **** 0.06
12258 H 9.87353245608766 94.48312393949834 144.2597711961501 H 0.0 **** 0.06
12259 H 10.407663801227628 93.76005396826912 142.72377991826693 H 0.0 **** 0.06
12260 H 11.005585295900019 95.36574386648533 143.20644495971442 H 0.0 **** 0.06
12261 C 185.39538396284703 164.80726489610709 75.24199607645374 C 0.0 **** -0.24
12262 H 185.71027260452303 164.67208082884724 76.27680405409245 H 0.0 **** 0.06
12263 H 186.25209618402408 165.108702999809 74.63849761570748 H 0.0 **** 0.06
12264 H 184.62749368585446 165.5798072246083 75.19323110345232 H 0.0 **** 0.06
12265 H 184.99189175954209 163.8700656012568 74.8588177131686 H 0.0 **** 0.06
12266 C 97.48777121725642 79.02498993905077 177.27756771803905 C 0.0 **** -0.24
12267 H 98.39197514677902 79.63374068299335 177.29350282275783 H 0.0 **** 0.06
12268 H 96.61527934944918 79.66787455828747 177.38785108005067 H 0.0 **** 0.06
12269 H 97.51907665501501 78.30905293518471 178.0999030153323 H 0.0 **** 0.06
12270 H 97.42767222600328 78.48800037711887 176.33096724427736 H 0.0 **** 0.06
12271 C 128.13586533955532 20.87116335714053 44.987768324551894 C 0.0 **** -0.24
12272 H 128.34681973667932 19.8065850978076 44.89036454935297 H 0.0 **** 0.06
12273 H 128.60310972509166 21.252180850492252 45.895567025763796 H 0.0 **** 0.06
12274 H 127.05783949005802 21.02417396062799 45.04120206726725 H 0.0 **** 0.06
12275 H 128.5360288553195 21.401004858724733 44.12276295036662 H 0.0 **** 0.06
12276 C 101.43029911998656 23.632121291653675 0.9397406607926087 C 0.0 **** -0.24
12277 H 101.57350610508121 22.7377030010351 1.546596350999323 H 0.0 **** 0.06
12278 H 101.65203998991149 24.51636384576804 1.5373360339120268 H 0.0 **** 0.06
12279 H 100.3972145652316 23.675694290357626 0.5943367822168284 H 0.0 **** 0.06
12280 H 102.09976693174133 23.597017801483787 0.08013043816629306 H 0.0 **** 0.06
12281 C 108.49776222471796 130.43354665654016 129.68038699681676 C 0.0 **** -0.24
12282 H 107.5231494611683 130.90935534414598 129.56889618726967 H 0.0 **** 0.06
12283 H 108.57941162980721 129.60518006130923 128.97628522580806 H 0.0 **** 0.06
12284 H 108.60392514099313 130.05780786533302 130.69743218317927 H 0.0 **** 0.06
12285 H 109.28276467022907 131.162500914024 129.4777790082495 H 0.0 **** 0.06
12286 C 57.89789341046475 201.77710561043924 1.7199455628877445 C 0.0 **** -0.24
12287 H 58.610924762026684 202.58737394931316 1.5735296543301445 H 0.0 **** 0.06
12288 H 58.35488334985507 200.99715294076526 2.330465992939253 H 0.0 **** 0.06
12289 H 57.616148284725966 201.36292525923375 0.7519794200098886 H 0.0 **** 0.06
12290 H 57.010863995051466 202.1603448076946 2.2240404602034403 H 0.0 **** 0.06
12291 C 74.52587044124658 118.83450303653343 74.26751256438884 C 0.0 **** -0.24
12292 H 74.69187853903082 118.85411012473908 73.19064534812141 H 0.0 **** 0.06
12293 H 74.31875597470747 119.84389130154561 74.62217022381041 H 0.0 **** 0.06
12294 H 75.41512502443334 118.44837047399746 74.76540518478178 H 0.0 **** 0.06
12295 H 73.67542194289769 118.18936646518465 74.49109546963224 H 0.0 **** 0.06
12296 C 90.26804330113396 161.16582110986616 151.40215061309596 C 0.0 **** -0.24
12297 H 91.25319604876313 160.9096850233098 151.01316154576233 H 0.0 **** 0.06
12298 H 90.08714558961958 162.23153609770966 151.26076558768187 H 0.0 **** 0.06
12299 H 90.22474474029309 160.9282675220985 152.4650417943746 H 0.0 **** 0.06
12300 H 89.50794241553274 160.59479300405786 150.87015657044248 H 0.0 **** 0.06
12301 C 120.79541861798445 66.9212727679606 67.00780463364455 C 0.0 **** -0.24
12302 H 119.90598814068854 66.91390800772473 67.63828011464068 H 0.0 **** 0.06
12303 H 121.06422636436837 67.95074561044879 66.76988404083932 H 0.0 **** 0.06
12304 H 120.59217586714699 66.3762208912512 66.086624980567 H 0.0 **** 0.06
12305 H 121.61998833555647 66.44376123468192 67.53873088288962 H 0.0 **** 0.06
12306 C 44.60192451867073 141.67716471707303 75.37107216447123 C 0.0 **** -0.24
12307 H 43.84571334130018 141.59240113479007 76.15188260062962 H 0.0 **** 0.06
12308 H 44.11839104069847 141.66739292816544 74.39410080917474 H 0.0 **** 0.06
12309 H 45.29295870860079 140.83682715179168 75.44341631003078 H 0.0 **** 0.06
12310 H 45.15069427852501 142.61094664486308 75.4962329005017 H 0.0 **** 0.06
12311 C 98.51807152902022 14.929904884096416 11.725869579982444 C 0.0 **** -0.24
12312 H 98.31943667479133 14.888470590083216 12.796938454989927 H 0.0 **** 0.06
12313 H 98.36437688932439 15.947765138340529 11.367434651708038 H 0.0 **** 0.06
12314 H 97.83972697297672 14.254108611657799 11.204177895597368 H 0.0 **** 0.06
12315 H 99.54860195692633 14.628162648309853 11.535788504932 H 0.0 **** 0.06
12316 C 141.00381876690216 89.50385998189104 156.6274263027309 C 0.0 **** -0.24
12317 H 141.74300447419955 89.02889597799656 157.27261683615012 H 0.0 **** 0.06
12318 H 141.32555443520943 90.51845235735318 156.39120264091082 H 0.0 **** 0.06
12319 H 140.0422948156035 89.5381695794889 157.14092868936297 H 0.0 **** 0.06
12320 H 140.90334361604857 88.93071714292 155.70674767517278 H 0.0 **** 0.06
12321 C 30.43092587250365 157.9762513087744 167.66055661238818 C 0.0 **** -0.24
12322 H 30.18983179784871 158.61431920511922 168.51062786803598 H 0.0 **** 0.06
12323 H 30.406835670979376 158.5674398898812 166.74479907325355 H 0.0 **** 0.06
12324 H 29.70035980565241 157.1705003396193 167.59278696550814 H 0.0 **** 0.06
12325 H 31.426428541625697 157.5533033559285 167.79480488517038 H 0.0 **** 0.06
12326 C 192.27634663869074 60.12690823118734 156.19535834252991 C 0.0 **** -0.24
12327 H 193.2200211617137 59.69973007224003 155.85603644160295 H 0.0 **** 0.06
12328 H 192.45978816454007 61.103677684065374 156.6421589318282 H 0.0 **** 0.06
12329 H 191.82474280659633 59.467081158743966 156.9358746103086 H 0.0 **** 0.06
12330 H 191.6010640970506 60.23683921681693 155.34600162849853 H 0.0 **** 0.06
12331 C 68.37561388643827 124.06260807407166 99.24591334070276 C 0.0 **** -0.24
12332 H 67.46614940561278 123.55766801916774 99.57462608809975 H 0.0 **** 0.06
12333 H 68.96264904098929 124.3566648695038 100.11602854362623 H 0.0 **** 0.06
12334 H 68.10876773569215 124.94958939151088 98.67088428103854 H 0.0 **** 0.06
12335 H 68.96042426537745 123.38762330653309 98.6230221154138 H 0.0 **** 0.06
12336 C 54.483223025469 1.3133869161233633 41.46672724996826 C 0.0 **** -0.24
12337 H 53.644088435906994 1.7488933969415825 42.00854582678524 H 0.0 **** 0.06
12338 H 55.33271126159225 1.9958624937386276 41.50271293328389 H 0.0 **** 0.06
12339 H 54.196749200367705 1.1435554250220434 40.42946107040041 H 0.0 **** 0.06
12340 H 54.759830529753 0.3643407180953204 41.92716916592063 H 0.0 **** 0.06
12341 C 98.25957938205902 160.0418722154949 139.9817610303117 C 0.0 **** -0.24
12342 H 98.57172198942872 159.65763626084174 139.01017527675128 H 0.0 **** 0.06
12343 H 98.94695832367056 160.8276912970324 140.2983012867046 H 0.0 **** 0.06
12344 H 98.27078262299652 159.2334968352642 140.7124681255096 H 0.0 **** 0.06
12345 H 97.25207195210207 160.44917724376347 139.90425935238096 H 0.0 **** 0.06
12346 C 12.24212338030361 184.1286125152128 134.52798733452317 C 0.0 **** -0.24
12347 H 12.24402312496835 183.49475624401776 133.6408459890368 H 0.0 **** 0.06
12348 H 13.135912123878313 183.92935635790025 135.1191123639282 H 0.0 **** 0.06
12349 H 11.355970593578434 183.91456839157084 135.12487130621014 H 0.0 **** 0.06
12350 H 12.23251467732075 185.17619522388392 134.22492579055472 H 0.0 **** 0.06
12351 C 175.6629627831997 9.707877850251208 110.85450553174174 C 0.0 **** -0.24
12352 H 175.6869400872834 8.823364078887266 110.21719741886172 H 0.0 **** 0.06
12353 H 175.65610802340558 10.603117736496529 110.23322887472197 H 0.0 **** 0.06
12354 H 176.54412168897605 9.7160630099238 111.49676415400735 H 0.0 **** 0.06
12355 H 174.76436053454842 9.685238934085476 111.47078680660464 H 0.0 **** 0.06
12356 C 78.68107309738652 54.20771474927538 144.09195801912483 C 0.0 **** -0.24
12357 H 79.25997318347198 55.11718372998587 144.25722757180318 H 0.0 **** 0.06
12358 H 78.95369709248511 53.46371879124554 144.8409495550776 H 0.0 **** 0.06
12359 H 78.89466448753312 53.81701160194369 143.09686610791857 H 0.0 **** 0.06
12360 H 77.6182601572642 54.43411280022096 144.1739440186546 H 0.0 **** 0.06
12361 C 103.67368764335062 136.12941469569637 124.10283528722049 C 0.0 **** -0.24
12362 H 104.7241627909505 135.85417282788364 124.00248073627502 H 0.0 **** 0.06
12363 H 103.10982280878433 135.7181869005418 123.26529287472765 H 0.0 **** 0.06
12364 H 103.58234823110486 137.21529569203068 124.10578483565997 H 0.0 **** 0.06
12365 H 103.28097112105463 135.72862246497613 125.03702876219442 H 0.0 **** 0.06
12366 C 98.9828696290024 72.82617115537234 163.51842793941634 C 0.0 **** -0.24
12367 H 98.22157816510524 73.60700688321687 163.48661525790789 H 0.0 **** 0.06
12368 H 99.09319359026385 72.38718671560996 162.5263793328685 H 0.0 **** 0.06
12369 H 98.68202762361086 72.05508205682933 164.22654925652336 H 0.0 **** 0.06
12370 H 99.93233733150625 73.25903021134572 163.83232321507836 H 0.0 **** 0.06
12371 C 34.79266457863315 29.567800739692913 108.67076277385796 C 0.0 **** -0.24
12372 H 35.46800059910291 29.563579220773022 107.81581215724977 H 0.0 **** 0.06
12373 H 35.35874226157816 29.371721097515035 109.58234655910066 H 0.0 **** 0.06
12374 H 34.03624740549742 28.793697435501855 108.54005210932336 H 0.0 **** 0.06
12375 H 34.30742137052141 30.540863169543726 108.74590710703531 H 0.0 **** 0.06
12376 C 150.0030033745942 129.30429420456227 122.38971371800285 C 0.0 **** -0.24
12377 H 150.61872758036623 129.89751180489685 123.06570980963689 H 0.0 **** 0.06
12378 H 149.10375271764644 129.86499911568876 122.13085965054672 H 0.0 **** 0.06
12379 H 149.72163497123182 128.3720712237128 122.87916878913974 H 0.0 **** 0.06
12380 H 150.56675663141226 129.08317421152196 121.48371739281608 H 0.0 **** 0.06
12381 C 114.65375076437415 47.16132387821341 97.48314839168292 C 0.0 **** -0.24
12382 H 114.78999105641516 46.12377170275998 97.78867287204095 H 0.0 **** 0.06
12383 H 114.1377568286273 47.19322652496297 96.52379516789604 H 0.0 **** 0.06
12384 H 115.62623431989421 47.64335922469547 97.38974724782405 H 0.0 **** 0.06
12385 H 114.05948754520294 47.684781399354804 98.23295210460476 H 0.0 **** 0.06
12386 C 32.65805665370948 199.6071730968225 71.28406085446615 C 0.0 **** -0.24
12387 H 32.88201292918569 198.6795374074221 70.75755658367096 H 0.0 **** 0.06
12388 H 33.23031541015132 199.64565524523326 72.21087808241624 H 0.0 **** 0.06
12389 H 31.5925390456801 199.64837403399397 71.51097240858734 H 0.0 **** 0.06
12390 H 32.928273380050314 200.45591878584713 70.65495606928481 H 0.0 **** 0.06
12391 C 179.43559906455855 212.69256276318492 56.95875546264148 C 0.0 **** -0.24
12392 H 178.46259213489765 212.9673389786815 56.549369688146896 H 0.0 **** 0.06
12393 H 179.37364723851482 212.65595801542509 58.046453583955156 H 0.0 **** 0.06
12394 H 180.17660676129668 213.4341903105771 56.660141474532395 H 0.0 **** 0.06
12395 H 179.72628848768719 211.71399394221777 56.5768551406903 H 0.0 **** 0.06
12396 C 129.2064530607974 89.68837394212547 120.93935622022713 C 0.0 **** -0.24
12397 H 129.30890833559988 88.6872180488577 120.5201105419593 H 0.0 **** 0.06
12398 H 129.56814858792734 90.4226491683675 120.21816178847854 H 0.0 **** 0.06
12399 H 129.7913202503433 89.75950758680953 121.85591800036428 H 0.0 **** 0.06
12400 H 128.15750895303376 89.88317652352485 121.16178450757263 H 0.0 **** 0.06
12401 C 98.1375425936867 13.862264729347089 213.3383342649471 C 0.0 **** -0.24
12402 H 98.55681209048129 12.856934528214651 213.37305321176507 H 0.0 **** 0.06
12403 H 97.50329299142805 14.021904206023862 214.21212764435893 H 0.0 **** 0.06
12404 H 97.54339803958459 13.97735797619049 212.4322206317001 H 0.0 **** 0.06
12405 H 98.94671091117169 14.593067322443062 213.33892825874432 H 0.0 **** 0.06
12406 C 8.50314569704858 136.37550934868324 176.36186930628713 C 0.0 **** -0.24
12407 H 9.2617798101098 135.66889721346143 176.69847547079834 H 0.0 **** 0.06
12408 H 8.261760889035543 137.06232298297226 177.17374956856543 H 0.0 **** 0.06
12409 H 7.605785490299695 135.83191574041524 176.06705448704906 H 0.0 **** 0.06
12410 H 8.88454575275216 136.93875128773652 175.51001858193567 H 0.0 **** 0.06
12411 C 207.51459137090404 171.1137432219737 53.09154643864059 C 0.0 **** -0.24
12412 H 207.09774912104734 170.34500523128546 53.74186449086204 H 0.0 **** 0.06
12413 H 206.8400538394302 171.28461281096344 52.252571565115844 H 0.0 **** 0.06
12414 H 208.48423560450374 170.78507691790765 52.71743060225755 H 0.0 **** 0.06
12415 H 207.63673020589937 172.03859678920224 53.65442484816667 H 0.0 **** 0.06
12416 C 165.31163721832712 38.141481139881066 109.11964126587975 C 0.0 **** -0.24
12417 H 164.5294874994262 38.36796870611248 108.39521022565958 H 0.0 **** 0.06
12418 H 165.18826940163515 38.77436218469607 109.9989154636001 H 0.0 **** 0.06
12419 H 166.28736738987493 38.329215169243824 108.67024865066224 H 0.0 **** 0.06
12420 H 165.2424757809831 37.09407813502749 109.41284729011244 H 0.0 **** 0.06
12421 C 127.09621328405801 180.26544105932166 167.52035063601295 C 0.0 **** -0.24
12422 H 126.18073067657387 180.43823226571618 168.08469530289858 H 0.0 **** 0.06
12423 H 127.66165946357744 179.4564920009459 167.98457709114052 H 0.0 **** 0.06
12424 H 127.69826849528816 181.17358853912518 167.51774313208693 H 0.0 **** 0.06
12425 H 126.84573536907244 179.99166873137628 166.49505620168787 H 0.0 **** 0.06
12426 C 107.8773062969674 70.44363308787497 111.53136875566248 C 0.0 **** -0.24
12427 H 108.30136956090898 69.79695560442364 112.2985139118321 H 0.0 **** 0.06
12428 H 107.6235564671412 71.40914260846516 111.96976758988289 H 0.0 **** 0.06
12429 H 106.97862456854897 69.98142461977672 111.12265782700307 H 0.0 **** 0.06
12430 H 108.60707864916567 70.58660959964256 110.7336036333579 H 0.0 **** 0.06
12431 C 173.3836281454973 174.17890346229643 127.40610628636271 C 0.0 **** -0.24
12432 H 172.44163787256835 174.2722419237964 126.86568016353165 H 0.0 **** 0.06
12433 H 173.59120778392705 173.12507482703262 127.596193282898 H 0.0 **** 0.06
12434 H 173.31114415380625 174.7113529072779 128.35486115962135 H 0.0 **** 0.06
12435 H 174.18861327549388 174.60682331010236 126.80884781932276 H 0.0 **** 0.06
12436 C 172.78672763753121 129.57299634884635 10.05077420765248 C 0.0 **** -0.24
12437 H 173.46157700512902 128.73880940919116 10.244112323466851 H 0.0 **** 0.06
12438 H 171.7621563105638 129.26714615024343 10.259741595625641 H 0.0 **** 0.06
12439 H 172.87113052667496 129.8739055964224 9.006425646292584 H 0.0 **** 0.06
12440 H 173.0542130399861 130.41263315633165 10.692597963821896 H 0.0 **** 0.06
12441 C 166.49169829536098 58.893057739715644 174.7208988091802 C 0.0 **** -0.24
12442 H 167.38530599319142 59.27967577807411 174.2308856340805 H 0.0 **** 0.06
12443 H 166.3988377472808 57.82589628634308 174.51734905840652 H 0.0 **** 0.06
12444 H 165.61390848377832 59.41389364337731 174.33817547894594 H 0.0 **** 0.06
12445 H 166.56864095881565 59.05323460242414 175.7963077246596 H 0.0 **** 0.06
12446 C 206.03100235680859 153.16224879097115 76.13246097911376 C 0.0 **** -0.24
12447 H 206.9704159475656 152.63477305472088 75.96854459413659 H 0.0 **** 0.06
12448 H 205.4261158920463 153.117024645857 75.22698581474562 H 0.0 **** 0.06
12449 H 206.2385735619768 154.20379505488643 76.37954745393326 H 0.0 **** 0.06
12450 H 205.4901313123819 152.69410497450377 76.9547802685555 H 0.0 **** 0.06
12451 C 0.21920254128377792 47.59684949403447 26.36358200879569 C 0.0 **** -0.24
12452 H -0.6002355735710125 47.10039055678743 26.884359172389225 H 0.0 **** 0.06
12453 H 1.1685930639769708 47.27071238472479 26.786925058923316 H 0.0 **** 0.06
12454 H 0.12068453847950877 48.67607193272352 26.47680414929853 H 0.0 **** 0.06
12455 H 0.18538717541173355 47.33807694025603 25.30538806657576 H 0.0 **** 0.06
12456 C 211.2269671911584 98.77681803237219 111.53771854486631 C 0.0 **** -0.24
12457 H 210.3443569192886 99.38538582316302 111.34427742678194 H 0.0 **** 0.06
12458 H 210.93694216762947 97.88024083971099 112.08611162479822 H 0.0 **** 0.06
12459 H 211.9408639777694 99.35023367292932 112.13008670665921 H 0.0 **** 0.06
12460 H 211.686727828021 98.49229658902614 110.59081366248266 H 0.0 **** 0.06
12461 C 115.22719145833906 187.8153133567539 9.472119347433662 C 0.0 **** -0.24
12462 H 116.15672608099419 187.25184570177066 9.549253731374392 H 0.0 **** 0.06
12463 H 114.39865668720938 187.2003202556707 9.82291380180753 H 0.0 **** 0.06
12464 H 115.05794863316345 188.09544073059686 8.432545082372044 H 0.0 **** 0.06
12465 H 115.2965231067949 188.7149738821157 10.083996137757708 H 0.0 **** 0.06
12466 C 16.598722324410645 182.951018552352 91.5444331995103 C 0.0 **** -0.24
12467 H 16.812307809556373 184.01215670764157 91.66991299990782 H 0.0 **** 0.06
12468 H 15.526115620664285 182.81073807265773 91.40427110876574 H 0.0 **** 0.06
12469 H 16.924129053675458 182.4073564016889 92.43133119939047 H 0.0 **** 0.06
12470 H 17.13160832718431 182.57345460943083 90.67163991533867 H 0.0 **** 0.06
12471 C 130.5515575430956 173.0531094298264 143.9601100901454 C 0.0 **** -0.24
12472 H 131.19552653314997 172.97888341748694 144.83592374683263 H 0.0 **** 0.06
12473 H 129.6997940028109 172.38301551795035 144.07660540033197 H 0.0 **** 0.06
12474 H 131.11580680493813 172.77373343390934 143.06976578726005 H 0.0 **** 0.06
12475 H 130.19642200299648 174.07893994550398 143.85684027330427 H 0.0 **** 0.06
12476 C 176.95606349982933 100.50333947603961 65.35363039180328 C 0.0 **** -0.24
12477 H 176.86706949994735 99.60186106091125 65.95944708284009 H 0.0 **** 0.06
12478 H 177.94168674337365 100.94471885147111 65.50152632163929 H 0.0 **** 0.06
12479 H 176.18887443291158 101.21887751267481 65.65177199144324 H 0.0 **** 0.06
12480 H 176.8243344256053 100.24877275140896 64.30176234945077 H 0.0 **** 0.06
12481 C 40.51469576051906 154.4418413147721 20.252415645044223 C 0.0 **** -0.24
12482 H 39.583311827607744 154.23507491171193 19.725757547056702 H 0.0 **** 0.06
12483 H 41.305742296743816 153.8036162876221 19.857634258615818 H 0.0 **** 0.06
12484 H 40.382307094655886 154.24110625351545 21.316184809585337 H 0.0 **** 0.06
12485 H 40.78712172528317 155.48759802193132 20.111791567210787 H 0.0 **** 0.06
12486 C 88.57295824448939 29.08283376038561 100.7735875233602 C 0.0 **** -0.24
12487 H 87.52205056539545 29.30324187625375 100.96413271311614 H 0.0 **** 0.06
12488 H 89.1967331504457 29.723983784929942 101.39695391676925 H 0.0 **** 0.06
12489 H 88.7975047031487 29.268273001238555 99.7236664328697 H 0.0 **** 0.06
12490 H 88.77415690677826 28.038483376537144 101.00933630359499 H 0.0 **** 0.06
12491 C 143.40978726906002 151.18519545418036 204.9263624770496 C 0.0 **** -0.24
12492 H 143.2361536526626 150.4078969903847 205.67015585768428 H 0.0 **** 0.06
12493 H 144.3052412463765 151.74890384484127 205.1924079621751 H 0.0 **** 0.06
12494 H 142.55304440310647 151.85742426740296 204.8955371668947 H 0.0 **** 0.06
12495 H 143.54714710520142 150.72641827454686 203.9471480402362 H 0.0 **** 0.06
12496 C 210.8832557054611 192.35431638228107 16.026936001343316 C 0.0 **** -0.24
12497 H 210.51680296935575 191.48396208929782 16.57167625235013 H 0.0 **** 0.06
12498 H 211.39361481470118 192.02728252515826 15.120846282889318 H 0.0 **** 0.06
12499 H 211.58001077312298 192.90956058037938 16.65601979280892 H 0.0 **** 0.06
12500 H 210.0438454274944 192.99589160042342 15.760654674626622 H 0.0 **** 0.06
12501 C 89.21324767401377 1.2142841189716478 38.73816932955755 C 0.0 **** -0.24
12502 H 90.28631552042482 1.2331070244175635 38.54782955142743 H 0.0 **** 0.06
12503 H 88.91372862647826 2.1462700925494573 39.21822727721566 H 0.0 **** 0.06
12504 H 88.97533924956316 0.37533763369697226 39.39279557997547 H 0.0 **** 0.06
12505 H 88.67820635094365 1.1019876350396771 37.79593507262241 H 0.0 **** 0.06
12506 C 104.32958499689464 204.16192888651304 178.14623639706718 C 0.0 **** -0.24
12507 H 103.77888036049806 205.10235919508403 178.1601421883322 H 0.0 **** 0.06
12508 H 104.5505707889415 203.88666099009797 177.11526161966498 H 0.0 **** 0.06
12509 H 103.72646191173273 203.38104296416265 178.6108199511255 H 0.0 **** 0.06
12510 H 105.26085226332619 204.2784582779547 178.699655134774 H 0.0 **** 0.06
12511 C 36.698411984992205 26.996552067820573 21.380094509690082 C 0.0 **** -0.24
12512 H 37.766864472649814 27.174965206625444 21.504710658581587 H 0.0 **** 0.06
12513 H 36.19248451808984 27.9433631495113 21.191541312498316 H 0.0 **** 0.06
12514 H 36.29840451674656 26.545304583852555 22.288466064462654 H 0.0 **** 0.06
12515 H 36.538429381886516 26.32383423435482 20.53810733480225 H 0.0 **** 0.06
12516 C 83.9699111827462 80.60341461085301 141.97649385165977 C 0.0 **** -0.24
12517 H 83.15229878936516 81.11904227839523 142.4802311041003 H 0.0 **** 0.06
12518 H 83.60067898292756 80.14842594475999 141.05669927977237 H 0.0 **** 0.06
12519 H 84.36821493477952 79.82847255082328 142.63096390549606 H 0.0 **** 0.06
12520 H 84.75722166533863 81.31713318146274 141.73770082069012 H 0.0 **** 0.06
12521 C 40.764407847217356 61.48518054664078 169.96123016294752 C 0.0 **** -0.24
12522 H 41.749755987118206 61.950868802707845 169.94392040936216 H 0.0 **** 0.06
12523 H 40.816954100055185 60.50729647311081 169.48322937157633 H 0.0 **** 0.06
12524 H 40.0560099741205 62.115406622856554 169.42355955476404 H 0.0 **** 0.06
12525 H 40.43571094192443 61.36942327626694 170.9937705866748 H 0.0 **** 0.06
12526 C 112.682711548863 136.43156558152532 61.61186286497923 C 0.0 **** -0.24
12527 H 113.17722310672504 135.4619771794417 61.54417383060502 H 0.0 **** 0.06
12528 H 112.81473685870473 136.83763719901026 62.61448357428236 H 0.0 **** 0.06
12529 H 111.62036188351236 136.31234659272707 61.4044861088982 H 0.0 **** 0.06
12530 H 113.12105522996622 137.1141695422241 60.88270251569588 H 0.0 **** 0.06
12531 C 48.08110564728763 197.33651733373 53.670324043617555 C 0.0 **** -0.24
12532 H 48.54943926338241 198.23734922790197 54.065823278459675 H 0.0 **** 0.06
12533 H 48.73195139842322 196.4803230921394 53.851225639655254 H 0.0 **** 0.06
12534 H 47.919346698803466 197.45131298579375 52.59863512726956 H 0.0 **** 0.06
12535 H 47.12448136042063 197.17771749433354 54.1676033549779 H 0.0 **** 0.06
12536 C 107.49644493999644 195.45458180575827 136.7603462089429 C 0.0 **** -0.24
12537 H 108.28835689013546 196.03085344751833 136.28197857428637 H 0.0 **** 0.06
12538 H 107.28113200244071 194.5683204783947 136.16295325176975 H 0.0 **** 0.06
12539 H 106.59860281133534 196.0670264529032 136.83951812471315 H 0.0 **** 0.06
12540 H 107.81928330699837 195.15158121498186 137.75733176542883 H 0.0 **** 0.06
12541 C 213.49891226198991 131.92647721935543 172.74140988028572 C 0.0 **** -0.24
12542 H 213.26442386901866 132.64700280117097 171.9571425565601 H 0.0 **** 0.06
12543 H 212.84896584968462 131.05742563147192 172.64071166470728 H 0.0 **** 0.06
12544 H 213.34250340450154 132.38708607227255 173.71623595213907 H 0.0 **** 0.06
12545 H 214.53959782236538 131.61569310809915 172.64850164763112 H 0.0 **** 0.06
12546 C 200.37582568406157 33.97661736876941 118.96989448002843 C 0.0 **** -0.24
12547 H 200.37559711549534 32.991686604150175 119.43669258564005 H 0.0 **** 0.06
12548 H 199.5706282618362 34.03045334311399 118.23703368863663 H 0.0 **** 0.06
12549 H 201.33176722023023 34.14380783094262 118.47435007985582 H 0.0 **** 0.06
12550 H 200.22305814815047 34.73979380566689 119.7333451672314 H 0.0 **** 0.06
12551 C 93.2820637358419 98.60351031507237 216.10647722904122 C 0.0 **** -0.24
12552 H 94.21826902939581 98.77533805236267 216.63818769928423 H 0.0 **** 0.06
12553 H 92.61897606669332 97.9988464116539 216.7254485119966 H 0.0 **** 0.06
12554 H 93.4864918527626 98.0808927933768 215.1721318942657 H 0.0 **** 0.06
12555 H 92.80704006182164 99.56039980827823 215.89090093689023 H 0.0 **** 0.06
12556 C 44.40918783110827 65.98805132249174 154.04617653738035 C 0.0 **** -0.24
12557 H 44.379216673147525 67.07541586884713 154.10575998958916 H 0.0 **** 0.06
12558 H 45.12962541484731 65.6848584409785 153.28688549263404 H 0.0 **** 0.06
12559 H 43.42065855023604 65.61227919353131 153.7796970321436 H 0.0 **** 0.06
12560 H 44.70485730689636 65.5792177542014 155.01265251758724 H 0.0 **** 0.06
12561 C 67.00845592512542 3.58781946555294 180.4873814878756 C 0.0 **** -0.24
12562 H 67.18749703023437 4.0757239646207495 181.44633072847205 H 0.0 **** 0.06
12563 H 67.92689728420736 3.5953526968174003 179.89929826283995 H 0.0 **** 0.06
12564 H 66.22700604588539 4.1236750699045785 179.9486236632934 H 0.0 **** 0.06
12565 H 66.69395015198533 2.5584479975109673 180.6575038709807 H 0.0 **** 0.06
12566 C 153.33728741765879 12.147917878112494 183.0285730857322 C 0.0 **** -0.24
12567 H 153.3785678805234 11.371889433020598 183.79225030545538 H 0.0 **** 0.06
12568 H 152.30859863906454 12.267524939300344 182.68802545212822 H 0.0 **** 0.06
12569 H 153.96866002195782 11.864699376581356 182.18703994123842 H 0.0 **** 0.06
12570 H 153.6932310764721 13.08912301803366 183.44857088042988 H 0.0 **** 0.06
12571 C 192.31247155104646 75.75770385016689 87.72555198481973 C 0.0 **** -0.24
12572 H 191.55162050198894 75.95793035818282 86.97017711876089 H 0.0 **** 0.06
12573 H 192.45555866042287 76.64693050918727 88.34035860728585 H 0.0 **** 0.06
12574 H 193.25092373558758 75.49854087214693 87.23588661254098 H 0.0 **** 0.06
12575 H 191.98931155525946 74.92821803712256 88.35467044947205 H 0.0 **** 0.06
12576 C 187.0675085739501 143.70376389257996 212.29561235717813 C 0.0 **** -0.24
12577 H 186.42985179565096 144.50758998419485 212.6638494930481 H 0.0 **** 0.06
12578 H 188.02155578038366 143.72574966379653 212.82269176029945 H 0.0 **** 0.06
12579 H 187.23888309046902 143.83693389322377 211.22683610162522 H 0.0 **** 0.06
12580 H 186.57858433912858 142.7449972342314 212.46780330114152 H 0.0 **** 0.06
12581 C 143.72215456901085 149.7987500016153 214.35425538960868 C 0.0 **** -0.24
12582 H 143.58602320453997 149.96093990650257 213.28516801355278 H 0.0 **** 0.06
12583 H 142.96857357372676 150.35966877130778 214.90640024536418 H 0.0 **** 0.06
12584 H 144.715525036979 150.1372962441767 214.64898864944013 H 0.0 **** 0.06
12585 H 143.62046979674898 148.7361371393875 214.57603063259086 H 0.0 **** 0.06
12586 C 53.73546235595175 179.91411165536084 131.59661961676784 C 0.0 **** -0.24
12587 H 54.416532293093425 179.15534009701378 131.20971960433474 H 0.0 **** 0.06
12588 H 54.310277212359296 180.75932078307198 131.9736813208545 H 0.0 **** 0.06
12589 H 53.14056046862366 179.48855614796264 132.40460438573103 H 0.0 **** 0.06
12590 H 53.075465121366435 180.24971366253422 130.7976565051287 H 0.0 **** 0.06
12591 C 90.31935224038013 79.78770212536818 216.22899786626945 C 0.0 **** -0.24
12592 H 90.02183590684795 80.68000771681693 215.67841826679705 H 0.0 **** 0.06
12593 H 90.56680944992293 80.05999864137004 217.25521795979452 H 0.0 **** 0.06
12594 H 91.19070435729778 79.33937523170601 215.75141685181592 H 0.0 **** 0.06
12595 H 89.49805924745196 79.07142691157992 216.23093838667015 H 0.0 **** 0.06
12596 C 52.48049570121893 127.99860449737035 191.22539293846373 C 0.0 **** -0.24
12597 H 53.55341924518319 128.19165149693538 191.20475137276262 H 0.0 **** 0.06
12598 H 52.062124654058834 128.37413641686032 192.15932740309051 H 0.0 **** 0.06
12599 H 52.30412250435697 126.92482380411859 191.15367352378058 H 0.0 **** 0.06
12600 H 52.004211199577355 128.50225546225226 190.38374994478457 H 0.0 **** 0.06
12601 C 211.5285173236901 6.7354130600317035 211.04174685818714 C 0.0 **** -0.24
12602 H 210.63654567355587 6.380112923452884 211.55863615060838 H 0.0 **** 0.06
12603 H 211.9838826277944 5.910256876374206 210.49417143082107 H 0.0 **** 0.06
12604 H 212.2404281319134 7.123814130826162 211.77136441444657 H 0.0 **** 0.06
12605 H 211.25329667764473 7.527173028645876 210.34503035647168 H 0.0 **** 0.06
12606 C 13.889797265962159 168.77046629082787 163.94168346255083 C 0.0 **** -0.24
12607 H 14.786725147014124 168.9026013041361 163.33628619057288 H 0.0 **** 0.06
12608 H 13.86569795801762 167.75454974243576 164.33733475528675 H 0.0 **** 0.06
12609 H 13.007017435008379 168.9413812118387 163.32550248426526 H 0.0 **** 0.06
12610 H 13.900062292710459 169.48245467558309 164.76654726616692 H 0.0 **** 0.06
12611 C 99.38336677664167 166.77374383359927 46.637692429685785 C 0.0 **** -0.24
12612 H 98.38113940232903 166.7200523547064 47.06321875934401 H 0.0 **** 0.06
12613 H 99.81672771556136 165.77386224744896 46.600165616426125 H 0.0 **** 0.06
12614 H 100.00631326120485 167.41776467653986 47.25692496831789 H 0.0 **** 0.06
12615 H 99.32784490720816 167.18349220873304 45.628489897553095 H 0.0 **** 0.06
12616 C 184.62167394769318 55.29643973621977 123.13906287347777 C 0.0 **** -0.24
12617 H 183.74520454399348 54.87245725022612 123.62913977883323 H 0.0 **** 0.06
12618 H 184.3200501835924 56.149045335922935 122.53037909831824 H 0.0 **** 0.06
12619 H 185.0825980689261 54.540572414320934 122.50370889974232 H 0.0 **** 0.06
12620 H 185.33780384492965 55.62303105852166 123.89372652750632 H 0.0 **** 0.06
12621 C 65.97462772850656 200.5508772744377 20.85745251928445 C 0.0 **** -0.24
12622 H 66.56330080526664 200.04247684792847 20.09320702978522 H 0.0 **** 0.06
12623 H 65.8552810114848 199.89442037400028 21.719596267108983 H 0.0 **** 0.06
12624 H 64.99371673110045 200.80182925700439 20.452871418725834 H 0.0 **** 0.06
12625 H 66.48559663849164 201.4633052936337 21.1625737999708 H 0.0 **** 0.06
12626 C 65.3514618307529 214.2085409571381 172.8503895772007 C 0.0 **** -0.24
12627 H 66.13005739072634 214.92439443731496 172.58956998144586 H 0.0 **** 0.06
12628 H 65.63492839839802 213.2177226060544 172.4937513059092 H 0.0 **** 0.06
12629 H 64.41244577347413 214.5078069677328 172.38531557523248 H 0.0 **** 0.06
12630 H 65.22861350649083 214.18330362111232 173.9332120487867 H 0.0 **** 0.06
12631 C 210.1864746994287 120.10443817011553 161.279720605023 C 0.0 **** -0.24
12632 H 210.7744781261308 121.01838902331808 161.20152259380174 H 0.0 **** 0.06
12633 H 210.84421268653335 119.2690838027966 161.5218630721072 H 0.0 **** 0.06
12634 H 209.6881005686807 119.91101840472815 160.3304234242941 H 0.0 **** 0.06
12635 H 209.43910741636992 120.2192614496192 162.06507332988886 H 0.0 **** 0.06
12636 C 92.12880362297138 158.5571928417104 62.73562070965785 C 0.0 **** -0.24
12637 H 93.02749945168001 157.9408611822641 62.74885788328105 H 0.0 **** 0.06
12638 H 91.31110701845115 157.99740494752643 62.2809780773609 H 0.0 **** 0.06
12639 H 92.31702173235463 159.46065579294014 62.155533839528246 H 0.0 **** 0.06
12640 H 91.8594666307515 158.82931516660452 63.75546978552863 H 0.0 **** 0.06
12641 C 93.1472228785097 43.14807260073445 56.1638462997378 C 0.0 **** -0.24
12642 H 92.09750590174377 42.85695058832488 56.205838973407865 H 0.0 **** 0.06
12643 H 93.63927795462945 42.865316812113576 57.0943999526647 H 0.0 **** 0.06
12644 H 93.21945996354123 44.22666062774107 56.02795373132855 H 0.0 **** 0.06
12645 H 93.630658970237 42.643211295084086 55.32820359890603 H 0.0 **** 0.06
12646 C 25.509699398471895 80.82653850171978 64.05238574545179 C 0.0 **** -0.24
12647 H 26.59462272567373 80.88768963860439 63.97061142950625 H 0.0 **** 0.06
12648 H 25.059058118911437 81.03819639934461 63.08225971046457 H 0.0 **** 0.06
12649 H 25.159323626763623 81.55618562921451 64.78275690648185 H 0.0 **** 0.06
12650 H 25.225933269731016 79.8250451870555 64.37494124800772 H 0.0 **** 0.06
12651 C 172.59296679619973 54.08748159218095 22.285053030324192 C 0.0 **** -0.24
12652 H 172.07622431212621 54.04464201465257 21.326207831776216 H 0.0 **** 0.06
12653 H 172.05676576369947 53.48052530273924 23.014396329340244 H 0.0 **** 0.06
12654 H 172.631444663465 55.121467461052646 22.63025998522926 H 0.0 **** 0.06
12655 H 173.6074018606272 53.70622571442601 22.168723368997675 H 0.0 **** 0.06
12656 C 207.76218733836168 98.26893137954882 66.53001815841765 C 0.0 **** -0.24
12657 H 207.17532525285307 99.18654220304215 66.56177338445912 H 0.0 **** 0.06
12658 H 208.82175957584164 98.51100145507739 66.61324610274204 H 0.0 **** 0.06
12659 H 207.5802749243567 97.75389288940984 65.5872343291972 H 0.0 **** 0.06
12660 H 207.47096219247686 97.62214457740687 67.35828677535528 H 0.0 **** 0.06
12661 C 188.43700538002975 134.1535945763482 78.70616241926324 C 0.0 **** -0.24
12662 H 189.01606963327984 134.24225912203332 79.62564506426831 H 0.0 **** 0.06
12663 H 188.13071030925047 135.14611012917106 78.37276719315163 H 0.0 **** 0.06
12664 H 187.5541734041385 133.5421252797662 78.89061329319979 H 0.0 **** 0.06
12665 H 189.05000107449706 133.68411017561942 77.93621318202166 H 0.0 **** 0.06
12666 C 6.435439204790782 19.981977822769593 105.18995900800051 C 0.0 **** -0.24
12667 H 6.8616575842258385 19.01460362610885 104.92104225145981 H 0.0 **** 0.06
12668 H 7.189092591433649 20.7588859938937 105.06258397886778 H 0.0 **** 0.06
12669 H 6.109722699444802 19.957881250795324 106.2291309012475 H 0.0 **** 0.06
12670 H 5.581983183204585 20.19361795333201 104.54609380091888 H 0.0 **** 0.06
12671 C 8.536112517986908 146.57693024363488 205.45620373636558 C 0.0 **** -0.24
12672 H 8.99079751851886 146.3210993694928 206.4126226983446 H 0.0 **** 0.06
12673 H 9.297047880226884 146.55724388168778 204.67559501911143 H 0.0 **** 0.06
12674 H 8.100367001287864 147.5739277665284 205.51520295740076 H 0.0 **** 0.06
12675 H 7.755823857631697 145.85274331126618 205.22068507167745 H 0.0 **** 0.06
12676 C 151.50950177687326 106.09013497102626 134.3473440186557 C 0.0 **** -0.24
12677 H 151.67732892904553 105.1843616946976 134.9301741470709 H 0.0 **** 0.06
12678 H 152.3600765209842 106.25907970161836 133.6859890145089 H 0.0 **** 0.06
12679 H 151.39785114696087 106.93983136142026 135.01998009937654 H 0.0 **** 0.06
12680 H 150.60344625082087 105.97633080064395 133.75160821915028 H 0.0 **** 0.06
12681 C 145.444480637011 129.74532241606107 144.2606837566684 C 0.0 **** -0.24
12682 H 146.50361297498125 129.8781317618537 144.04061217650087 H 0.0 **** 0.06
12683 H 144.94673732217 130.7155031621923 144.24981792833722 H 0.0 **** 0.06
12684 H 145.33150935781902 129.28972079542712 145.24473192617359 H 0.0 **** 0.06
12685 H 144.99597007065313 129.0984239853738 143.50624963701682 H 0.0 **** 0.06
12686 C 153.51764000590953 121.49277368546318 68.51681361024305 C 0.0 **** -0.24
12687 H 153.68151421468292 122.5678747572406 68.5873973098303 H 0.0 **** 0.06
12688 H 154.0247526232272 121.10655300115907 67.63210375444692 H 0.0 **** 0.06
12689 H 152.44964277277967 121.29217137393029 68.44161565565213 H 0.0 **** 0.06
12690 H 153.91747679876028 121.00543785793629 69.40648966380701 H 0.0 **** 0.06
12691 C 147.1675943614614 94.82367114676565 103.9973872167598 C 0.0 **** -0.24
12692 H 146.56397754050926 93.92293228508099 104.11032250293793 H 0.0 **** 0.06
12693 H 146.8445507997012 95.36767171308666 103.10950018184484 H 0.0 **** 0.06
12694 H 148.2162393732704 94.54681790266578 103.89314691122571 H 0.0 **** 0.06
12695 H 147.04397069859033 95.45617357402868 104.87622224064499 H 0.0 **** 0.06
12696 C 17.048575172171496 109.9469767617552 69.59952776190288 C 0.0 **** -0.24
12697 H 17.63227562315302 110.86306591309415 69.68668610715936 H 0.0 **** 0.06
12698 H 17.464174709241604 109.18774381207936 70.26259374778685 H 0.0 **** 0.06
12699 H 17.084994657773507 109.59068654289689 68.5700089233391 H 0.0 **** 0.06
12700 H 16.01502964998292 110.1467811893437 69.87845238297628 H 0.0 **** 0.06
12701 C 8.33763858417123 133.1075431950391 93.37507777265223 C 0.0 **** -0.24
12702 H 8.950257147223738 132.8435162985386 94.23771816627807 H 0.0 **** 0.06
12703 H 8.845783852654563 132.80181062913584 92.46083868411766 H 0.0 **** 0.06
12704 H 8.179113177671411 134.18643735315197 93.36030451715793 H 0.0 **** 0.06
12705 H 7.375363811079723 132.59986561535146 93.44387369238466 H 0.0 **** 0.06
12706 C 8.094069380618066 105.67520952232604 55.74196072008969 C 0.0 **** -0.24
12707 H 8.48571218285278 106.14583083062718 54.8392826693418 H 0.0 **** 0.06
12708 H 8.912304456714764 105.49027453266041 56.4382247168067 H 0.0 **** 0.06
12709 H 7.618230993664099 104.7301297277765 55.48159917155641 H 0.0 **** 0.06
12710 H 7.3626657816028 106.3362228269691 56.20688471614075 H 0.0 **** 0.06
12711 C 188.16459207515362 209.49608184097772 116.3654280069285 C 0.0 **** -0.24
12712 H 188.61672930223745 208.7147511415985 115.75532442038995 H 0.0 **** 0.06
12713 H 187.65579677784797 209.04326196839153 117.21677438495196 H 0.0 **** 0.06
12714 H 187.4452832922254 210.05505799891222 115.7664366250154 H 0.0 **** 0.06
12715 H 188.94145484788828 210.17219392621058 116.72432470521828 H 0.0 **** 0.06
12716 C 138.85516755351358 56.93654321960015 107.86159012256122 C 0.0 **** -0.24
12717 H 138.00770691734863 57.464637510647904 108.29972941827661 H 0.0 **** 0.06
12718 H 138.5839332547523 55.89411540760024 107.69125407865472 H 0.0 **** 0.06
12719 H 139.70365846416297 56.985059598623366 108.54383602119391 H 0.0 **** 0.06
12720 H 139.12364098904044 57.40313691650624 106.91386523060054 H 0.0 **** 0.06
12721 C 173.1987288790927 20.559110805894505 75.52384336695958 C 0.0 **** -0.24
12722 H 173.24194740687886 19.46983119157514 75.53257398232246 H 0.0 **** 0.06
12723 H 173.67251957487525 20.94885049015548 76.4251820953799 H 0.0 **** 0.06
12724 H 172.15742548169692 20.880722727833444 75.49271213986249 H 0.0 **** 0.06
12725 H 173.72186396357688 20.93693959773522 74.64570942806661 H 0.0 **** 0.06
12726 C 76.78798569541823 91.15410222134636 22.917576782490116 C 0.0 **** -0.24
12727 H 75.77444664117758 91.5375444154385 23.037225495392818 H 0.0 **** 0.06
12728 H 76.96182108604444 90.35595254243589 23.638884258018166 H 0.0 **** 0.06
12729 H 77.50240319739447 91.95927200239458 23.08669916273702 H 0.0 **** 0.06
12730 H 76.91211396627153 90.76489152469469 21.907193520077143 H 0.0 **** 0.06
12731 C 103.48819712327519 91.94022231956298 186.97014154208694 C 0.0 **** -0.24
12732 H 102.89002525788614 92.61656203437822 187.58174530813812 H 0.0 **** 0.06
12733 H 103.07454520719419 90.93344907261682 187.03258244722497 H 0.0 **** 0.06
12734 H 104.51588423610603 91.93572855045399 187.333569861252 H 0.0 **** 0.06
12735 H 103.47128955383552 92.27762339398451 185.93400652244276 H 0.0 **** 0.06
12736 C 211.33395197860395 161.7177824902897 107.10357509295231 C 0.0 **** -0.24
12737 H 211.33407686798654 160.6815234445552 106.76640554916308 H 0.0 **** 0.06
12738 H 210.43950005750474 162.21893492395344 106.73389532390182 H 0.0 **** 0.06
12739 H 212.21974514358638 162.22486175904854 106.72081769794578 H 0.0 **** 0.06
12740 H 211.3424858453381 161.74580983360158 108.19318180079863 H 0.0 **** 0.06
12741 C 104.17538703810477 31.18467246015871 120.71806655926407 C 0.0 **** -0.24
12742 H 105.02180537845764 31.41405789186456 120.07123857435103 H 0.0 **** 0.06
12743 H 104.41412306108118 30.316452961171464 121.33338369036018 H 0.0 **** 0.06
12744 H 103.2999270809387 30.968001715703778 120.10728938211382 H 0.0 **** 0.06
12745 H 103.9677486756812 32.040331961626606 121.36121994563312 H 0.0 **** 0.06
12746 C 114.0636405549745 129.50496310491206 145.48066689774714 C 0.0 **** -0.24
12747 H 113.21332153130045 128.8353346018999 145.35292748791676 H 0.0 **** 0.06
12748 H 113.74625485140196 130.39538479807402 146.02418016827215 H 0.0 **** 0.06
12749 H 114.44911014700811 129.79283801147784 144.50336738248728 H 0.0 **** 0.06
12750 H 114.844937217376 128.9952205384102 146.04317481210853 H 0.0 **** 0.06
12751 C 115.32968657871986 84.79050842196006 76.4332164401219 C 0.0 **** -0.24
12752 H 116.38397852071354 84.5159817999479 76.39960438542062 H 0.0 **** 0.06
12753 H 115.12969437884625 85.55697183739392 75.68297772674049 H 0.0 **** 0.06
12754 H 115.0875654565592 85.17767824271561 77.42271026051844 H 0.0 **** 0.06
12755 H 114.71906924000156 83.91173207362755 76.22600705128536 H 0.0 **** 0.06
12756 C 124.4988199898303 158.65460751784354 177.99776661784176 C 0.0 **** -0.24
12757 H 123.99402327122199 159.10717514216003 178.8511340364118 H 0.0 **** 0.06
12758 H 125.25639227839396 159.34100321768778 177.61789252186296 H 0.0 **** 0.06
12759 H 123.7705266203523 158.4465181055382 177.213775734357 H 0.0 **** 0.06
12760 H 124.97503597639074 157.72441910987556 178.30847066415694 H 0.0 **** 0.06
12761 C 117.71157967998506 189.83713280594105 0.14816205264548898 C 0.0 **** -0.24
12762 H 118.44519086237874 190.60432449454274 -0.10091764272458192 H 0.0 **** 0.06
12763 H 117.00613488113235 190.23289154543454 0.8790900927741916 H 0.0 **** 0.06
12764 H 118.22084228396913 188.96935053979956 0.5668357541010991 H 0.0 **** 0.06
12765 H 117.1739766742319 189.5426668155869 -0.7530504207190916 H 0.0 **** 0.06
12766 C 113.96171680027363 195.5084672395871 105.51267130326026 C 0.0 **** -0.24
12767 H 114.86156678152129 195.216188795549 104.97173003704474 H 0.0 **** 0.06
12768 H 113.95288656806771 195.02335859533636 106.48993933553679 H 0.0 **** 0.06
12769 H 113.08178616501327 195.20334638546564 104.94659580180142 H 0.0 **** 0.06
12770 H 113.95202873573324 196.59052750433108 105.64437880036506 H 0.0 **** 0.06
12771 C 202.9742789076654 10.971587762994716 10.49144698447003 C 0.0 **** -0.24
12772 H 203.52204944864857 10.425376524819114 9.72313398537392 H 0.0 **** 0.06
12773 H 203.6520759820524 11.229909696582325 11.306296710137786 H 0.0 **** 0.06
12774 H 202.16717633615204 10.347362678585995 10.874426897331887 H 0.0 **** 0.06
12775 H 202.55748262306895 11.881927858226788 10.06218962454227 H 0.0 **** 0.06
12776 C 0.6314587149852855 31.75367935688574 108.62647210045812 C 0.0 **** -0.24
12777 H 0.40127960477468605 32.68973233173821 109.13485338859819 H 0.0 **** 0.06
12778 H 0.5542076821041633 30.927645624814815 109.33466114115255 H 0.0 **** 0.06
12779 H 1.6437275691332616 31.797193785690837 108.22633665572566 H 0.0 **** 0.06
12780 H -0.07544592430679131 31.600486785568634 107.81130831541743 H 0.0 **** 0.06
12781 C 209.33394804162631 82.0242351669321 99.77749217133756 C 0.0 **** -0.24
12782 H 209.13587526398834 80.98130885212714 100.02330104130768 H 0.0 **** 0.06
12783 H 209.78452769017116 82.08429338381592 98.78642197189755 H 0.0 **** 0.06
12784 H 210.01823950273305 82.44705330331374 100.51374700044938 H 0.0 **** 0.06
12785 H 208.3984997039045 82.58396209404191 99.78622812028205 H 0.0 **** 0.06
12786 C 186.76186912696258 56.92246482822513 89.61843143175038 C 0.0 **** -0.24
12787 H 186.2328870703239 56.52786553854514 88.75139134777838 H 0.0 **** 0.06
12788 H 186.1262443579188 57.64103709187009 90.13575549811357 H 0.0 **** 0.06
12789 H 187.67671589304697 57.41600032845227 89.2916085007062 H 0.0 **** 0.06
12790 H 187.01252286029668 56.104435959781426 90.2940057193366 H 0.0 **** 0.06
12791 C 41.93772657513102 60.51949298538955 104.0631913303075 C 0.0 **** -0.24
12792 H 42.8116670392526 61.14955607396695 103.89791971862415 H 0.0 **** 0.06
12793 H 42.153212204164106 59.50445072854092 103.72855225943094 H 0.0 **** 0.06
12794 H 41.09177554035858 60.916247255444574 103.50161939561359 H 0.0 **** 0.06
12795 H 41.694550870586255 60.50817057446653 105.12597989249211 H 0.0 **** 0.06
12796 C 122.26258719494639 138.62953601368264 38.486325082063956 C 0.0 **** -0.24
12797 H 122.83152437714087 138.2124870047022 37.655844660756344 H 0.0 **** 0.06
12798 H 121.69840963593104 139.4958745110584 38.14138679517674 H 0.0 **** 0.06
12799 H 122.94652985222048 138.93288984936083 39.27846018079805 H 0.0 **** 0.06
12800 H 121.57439495463258 137.8757738809024 38.86891000702411 H 0.0 **** 0.06
12801 C 152.24123904611264 187.20941785709476 87.57244112933779 C 0.0 **** -0.24
12802 H 152.06546323614015 186.29712994384698 88.14085623596281 H 0.0 **** 0.06
12803 H 151.62698697770804 187.1999923037774 86.67171880691495 H 0.0 **** 0.06
12804 H 153.29408597469086 187.26703812356732 87.29370395879613 H 0.0 **** 0.06
12805 H 151.9789723197071 188.07427056429154 88.1824281031366 H 0.0 **** 0.06
12806 C 63.29731807300857 12.107877936685057 19.847029528408243 C 0.0 **** -0.24
12807 H 62.578671847756794 11.302952944368641 20.005738446835082 H 0.0 **** 0.06
12808 H 63.048729639269254 12.64030492416083 18.929090844937164 H 0.0 **** 0.06
12809 H 64.30007546434172 11.688446018437048 19.764739682827482 H 0.0 **** 0.06
12810 H 63.25956006446333 12.797742775390716 20.689408869384025 H 0.0 **** 0.06
12811 C 198.69665799987317 199.7647999280177 97.01440392871471 C 0.0 **** -0.24
12812 H 199.60476846107417 199.30245184781677 97.40151990980583 H 0.0 **** 0.06
12813 H 197.82629446993747 199.30016143547113 97.47868029946424 H 0.0 **** 0.06
12814 H 198.65089767922345 199.6249656504166 95.93440878825562 H 0.0 **** 0.06
12815 H 198.7055143252052 200.82999326369622 97.24463175784955 H 0.0 **** 0.06
12816 C 158.82046298854826 77.89895632632691 181.01911395927718 C 0.0 **** -0.24
12817 H 158.03379499746956 78.44757114882624 180.50242704947163 H 0.0 **** 0.06
12818 H 158.4893333190635 76.87617382357054 181.20329934691344 H 0.0 **** 0.06
12819 H 159.0401803655816 78.38655431078219 181.96848301467048 H 0.0 **** 0.06
12820 H 159.71867754077323 77.8848870552359 180.40099194324142 H 0.0 **** 0.06
12821 C 124.57922429376886 186.10218974676175 82.69711417489566 C 0.0 **** -0.24
12822 H 124.04630092835431 185.15245399959986 82.70458406247951 H 0.0 **** 0.06
12823 H 125.2047125648386 186.17510635987767 83.58670156454463 H 0.0 **** 0.06
12824 H 123.86111582395914 186.92189169597816 82.69025350224399 H 0.0 **** 0.06
12825 H 125.20565984985932 186.16033650550585 81.80653762053049 H 0.0 **** 0.06
12826 C 202.41704109364062 31.98135085120296 171.71271893175322 C 0.0 **** -0.24
12827 H 202.84171319399334 31.15163766117672 172.27916468559744 H 0.0 **** 0.06
12828 H 201.4158938150132 31.713521651157578 171.37342289505747 H 0.0 **** 0.06
12829 H 203.04826800970997 32.19327847168199 170.8509646948538 H 0.0 **** 0.06
12830 H 202.36069171889386 32.86432164617065 172.34853057237214 H 0.0 **** 0.06
12831 C 201.97177475088955 205.4815113018289 140.4509509865058 C 0.0 **** -0.24
12832 H 201.83850930278467 206.17610070433904 139.62207222302817 H 0.0 **** 0.06
12833 H 202.75376304963712 205.8543811979817 141.11433286776145 H 0.0 **** 0.06
12834 H 202.2589212081645 204.50350071818946 140.06374385805464 H 0.0 **** 0.06
12835 H 201.03772901302227 205.3926142098804 141.00519460945065 H 0.0 **** 0.06
12836 C 154.30024271775255 47.63510122235307 30.486341023103236 C 0.0 **** -0.24
12837 H 153.6150331143686 46.89343781665413 30.074504469231115 H 0.0 **** 0.06
12838 H 154.1153128703176 47.74595821558137 31.554208427634123 H 0.0 **** 0.06
12839 H 154.1420593666199 48.591600545514126 29.988810925717516 H 0.0 **** 0.06
12840 H 155.3274385361787 47.307799784554675 30.326376490349134 H 0.0 **** 0.06
12841 C 104.2951095088336 122.51663603172265 63.95045085174729 C 0.0 **** -0.24
12842 H 105.01529995361892 122.0257667793173 63.2949989036278 H 0.0 **** 0.06
12843 H 103.34969764425199 122.64096916747427 63.42327080782701 H 0.0 **** 0.06
12844 H 104.67915161107379 123.49315912756249 64.24449070315006 H 0.0 **** 0.06
12845 H 104.13949148563722 121.90579130249894 64.83895682362999 H 0.0 **** 0.06
12846 C 82.8654238534308 181.37546431786694 157.07423178224326 C 0.0 **** -0.24
12847 H 83.35140743239435 182.34985861858462 157.12743751825514 H 0.0 **** 0.06
12848 H 82.27912989083586 181.21212155166785 157.97792733363593 H 0.0 **** 0.06
12849 H 83.6237396104101 180.59678653549054 156.98641220914982 H 0.0 **** 0.06
12850 H 82.21002895174479 181.34341195101632 156.2037070496591 H 0.0 **** 0.06
12851 C 194.05988136350874 128.98919263167886 95.98760590285848 C 0.0 **** -0.24
12852 H 193.57964192316592 129.87729623126364 95.5785628870327 H 0.0 **** 0.06
12853 H 194.55893167383866 129.24434329865454 96.923249043497 H 0.0 **** 0.06
12854 H 194.79332481058015 128.61164709077497 95.27601740539443 H 0.0 **** 0.06
12855 H 193.30707428202004 128.2237191143264 96.1749689818562 H 0.0 **** 0.06
12856 C 88.14270869984136 52.158192514449794 68.32312045303524 C 0.0 **** -0.24
12857 H 89.1055418479519 52.19715922669792 68.83151994440308 H 0.0 **** 0.06
12858 H 87.51403387538033 52.97854894243214 68.67117282564939 H 0.0 **** 0.06
12859 H 87.65448290499074 51.209232419174526 68.5416437303465 H 0.0 **** 0.06
12860 H 88.29630797681062 52.24904449264089 67.2475934541398 H 0.0 **** 0.06
12861 C 172.95554448179615 102.57597647900845 28.998208799578265 C 0.0 **** -0.24
12862 H 173.33841732439268 103.59584210832766 29.031833446568456 H 0.0 **** 0.06
12863 H 173.57753119195584 101.9341428748216 29.62327145053952 H 0.0 **** 0.06
12864 H 172.9785171327215 102.21358497357774 27.970282344379058 H 0.0 **** 0.06
12865 H 171.9298862253033 102.56050493377835 29.366952491395338 H 0.0 **** 0.06
12866 C 45.43811560891817 167.86354001678322 181.51444127835953 C 0.0 **** -0.24
12867 H 45.78376931595102 167.91205761271667 180.4827409038671 H 0.0 **** 0.06
12868 H 46.19643834891309 168.28756697665108 182.1729896086714 H 0.0 **** 0.06
12869 H 45.258416726394614 166.82397286252967 181.78842956164422 H 0.0 **** 0.06
12870 H 44.511693395281384 168.43097987882857 181.61408091312103 H 0.0 **** 0.06
12871 C 9.661952529740546 136.43831334522633 212.06984743245704 C 0.0 **** -0.24
12872 H 10.603723997911416 136.90677759479019 211.78504245501938 H 0.0 **** 0.06
12873 H 9.448744987982721 135.6107633542432 211.3935858816141 H 0.0 **** 0.06
12874 H 8.858403057282374 137.17245881494955 212.01146241117914 H 0.0 **** 0.06
12875 H 9.73678018772786 136.06390890571043 213.09118199443208 H 0.0 **** 0.06
12876 C 105.82790072798336 47.80705231853642 92.41997617741488 C 0.0 **** -0.24
12877 H 106.44596074135625 47.1068370918444 91.85799611268338 H 0.0 **** 0.06
12878 H 105.92751189887416 47.60275426368338 93.48609580435028 H 0.0 **** 0.06
12879 H 104.78610678006011 47.6909136370748 92.1233243752116 H 0.0 **** 0.06
12880 H 106.15300570004747 48.82670208633607 92.21266421648956 H 0.0 **** 0.06
12881 C 213.61738642587545 171.03502216680474 133.0912363858958 C 0.0 **** -0.24
12882 H 214.17298638544852 170.15815167776705 132.75994806101573 H 0.0 **** 0.06
12883 H 213.3919763663459 170.94091759173378 134.15386180585466 H 0.0 **** 0.06
12884 H 212.68740636000592 171.11009465083885 132.5280078980764 H 0.0 **** 0.06
12885 H 214.2163311786103 171.92923335604894 132.92432132734024 H 0.0 **** 0.06
12886 C 175.82037480219975 108.50027130148602 81.52575449486119 C 0.0 **** -0.24
12887 H 175.99114112236472 108.24984093954804 80.47784960117156 H 0.0 **** 0.06
12888 H 176.62652578733548 108.08859040318764 82.13315268965027 H 0.0 **** 0.06
12889 H 174.8688004885028 108.07806690567135 81.84823380309263 H 0.0 **** 0.06
12890 H 175.79542812162506 109.58392829123942 81.64025919953644 H 0.0 **** 0.06
12891 C 30.339202627737222 115.15455394784887 38.57966135419571 C 0.0 **** -0.24
12892 H 31.261632580052492 115.50933028007994 38.121235947622324 H 0.0 **** 0.06
12893 H 29.49445779418977 115.71431934314454 38.17652114536338 H 0.0 **** 0.06
12894 H 30.390108617018143 115.30060726046268 39.65813162660157 H 0.0 **** 0.06
12895 H 30.20961819236146 114.09394917015719 38.36264170610647 H 0.0 **** 0.06
12896 C 26.586259612451485 81.54238918078414 137.4842033824711 C 0.0 **** -0.24
12897 H 26.716849079756173 80.52799690043179 137.85913244786406 H 0.0 **** 0.06
12898 H 25.97872565093415 81.52050347232614 136.57880310703007 H 0.0 **** 0.06
12899 H 27.561246294055636 81.9741148395085 137.2565455800219 H 0.0 **** 0.06
12900 H 26.088884120581568 82.14853378246659 138.24091103189403 H 0.0 **** 0.06
12901 C 170.71842873031432 194.73860497695568 150.90782579382272 C 0.0 **** -0.24
12902 H 170.96457250444237 195.14864795037164 151.88754827857673 H 0.0 **** 0.06
12903 H 171.5689652746948 194.17113181229413 150.52853309544997 H 0.0 **** 0.06
12904 H 170.4889687299459 195.55194284633274 150.22054438973004 H 0.0 **** 0.06
12905 H 169.85373262730369 194.08202250815918 150.9967202482814 H 0.0 **** 0.06
12906 C 19.109075943074686 98.73761091032155 212.2086054520551 C 0.0 **** -0.24
12907 H 19.529228666312363 99.46164842184983 212.9070440790852 H 0.0 **** 0.06
12908 H 19.730198394371186 98.69327580640307 211.31377561230855 H 0.0 **** 0.06
12909 H 18.09815925286999 99.04146518554548 211.93530126923844 H 0.0 **** 0.06
12910 H 19.0784527069859 97.75540216238058 212.68006523495347 H 0.0 **** 0.06
12911 C 111.65076596692688 102.62840406481887 99.68150080944434 C 0.0 **** -0.24
12912 H 111.52785072331801 101.74728744178334 100.31087308987497 H 0.0 **** 0.06
12913 H 110.85833357299902 103.3448452674706 99.9017099564557 H 0.0 **** 0.06
12914 H 111.59642688866109 102.33594437249856 98.63290854912924 H 0.0 **** 0.06
12915 H 112.62021243853741 103.08487100614003 99.88173469735665 H 0.0 **** 0.06
12916 C 45.45449524556312 186.24175917678883 89.20428687024649 C 0.0 **** -0.24
12917 H 44.385467582855085 186.44727558366696 89.13535191209242 H 0.0 **** 0.06
12918 H 45.987475665518275 187.16534234032633 89.4297223269099 H 0.0 **** 0.06
12919 H 45.80810612644359 185.83867877408474 88.25520748825916 H 0.0 **** 0.06
12920 H 45.63325816001867 185.51511388431152 89.99720337649988 H 0.0 **** 0.06
12921 C 80.0899090694777 120.45381542535155 216.790736249291 C 0.0 **** -0.24
12922 H 79.12028808317382 120.42784695805126 217.28835751536556 H 0.0 **** 0.06
12923 H 80.45226267679311 119.43489115874796 216.6496853333762 H 0.0 **** 0.06
12924 H 80.79740500693515 121.01030169253617 217.4051177778399 H 0.0 **** 0.06
12925 H 79.987806434145 120.94135150755515 215.82195932328162 H 0.0 **** 0.06
12926 C 127.33487630023392 35.9708771069496 92.07951873877174 C 0.0 **** -0.24
12927 H 126.39086824657856 35.68639945570911 92.54322056130088 H 0.0 **** 0.06
12928 H 128.03689127712647 36.289136150942355 92.84975005297788 H 0.0 **** 0.06
12929 H 127.16402943476656 36.79037806722947 91.38135281073023 H 0.0 **** 0.06
12930 H 127.74733418419216 35.116762024829214 91.54267420578124 H 0.0 **** 0.06
12931 C 131.18129872573894 167.39078954754115 60.94613998465384 C 0.0 **** -0.24
12932 H 130.7771970006059 166.585030747529 60.334024248995945 H 0.0 **** 0.06
12933 H 131.67677779381359 168.12123173647632 60.30560516187559 H 0.0 **** 0.06
12934 H 131.90079944498314 166.9824838596109 61.655783779068116 H 0.0 **** 0.06
12935 H 130.37005326620488 167.87484946717512 61.49044040290828 H 0.0 **** 0.06
12936 C 173.47975521512234 110.4780390267912 105.30909645250146 C 0.0 **** -0.24
12937 H 174.35471801017312 110.11515491068421 104.76974465363743 H 0.0 **** 0.06
12938 H 172.95763234872447 111.21592704323676 104.69909715523498 H 0.0 **** 0.06
12939 H 173.79556439619142 110.9376268959064 106.245308862865 H 0.0 **** 0.06
12940 H 172.811669781436 109.6437012963075 105.52096322340252 H 0.0 **** 0.06
12941 C 140.55914858068047 129.6860213726095 211.6942053370944 C 0.0 **** -0.24
12942 H 139.62908233931392 129.55635784164792 211.14181211397747 H 0.0 **** 0.06
12943 H 141.12243015865857 130.5157210710197 211.2667086508274 H 0.0 **** 0.06
12944 H 141.15009419952008 128.77266373967353 211.62904216099633 H 0.0 **** 0.06
12945 H 140.33418935256304 129.899571631124 212.73981558633128 H 0.0 **** 0.06
12946 C 90.16073544803116 52.149965837886924 150.34549095610726 C 0.0 **** -0.24
12947 H 89.58250871412396 53.03948922177108 150.59447111933127 H 0.0 **** 0.06
12948 H 89.97774160097087 51.37758948170091 151.09269183765673 H 0.0 **** 0.06
12949 H 91.22210622302664 52.39832551874878 150.3311142887908 H 0.0 **** 0.06
12950 H 89.85973682478082 51.783983259933336 149.3639183827143 H 0.0 **** 0.06
12951 C 198.28777250974335 45.20516886106229 210.62141883197947 C 0.0 **** -0.24
12952 H 197.56396210038196 45.0605084413468 211.42454150024275 H 0.0 **** 0.06
12953 H 198.0768366210292 46.143730964811525 210.10769966237604 H 0.0 **** 0.06
12954 H 198.21425182383666 44.37954106251145 209.91461223968292 H 0.0 **** 0.06
12955 H 199.29342783223518 45.23707041836268 211.04059635892764 H 0.0 **** 0.06
12956 C 11.47158962215508 97.70451070853017 202.02242428540686 C 0.0 **** -0.24
12957 H 12.321729346692408 98.24460542618868 202.43842220736167 H 0.0 **** 0.06
12958 H 10.825427970762803 97.36511599947073 202.83256841110529 H 0.0 **** 0.06
12959 H 11.828661636249535 96.84374658485791 201.45770592765342 H 0.0 **** 0.06
12960 H 10.910539534915571 98.3645748236035 201.361000595507 H 0.0 **** 0.06
12961 C 92.43479611343712 5.474319036445152 79.40469594991698 C 0.0 **** -0.24
12962 H 91.78474191570812 6.1395362050590165 79.97297474940392 H 0.0 **** 0.06
12963 H 93.35781227752965 5.3060936471165405 79.96001885149452 H 0.0 **** 0.06
12964 H 92.66803128835586 5.9307073332480655 78.44180849966595 H 0.0 **** 0.06
12965 H 91.92875521317849 4.522401151085475 79.24306647352354 H 0.0 **** 0.06
12966 C 103.18512157145567 66.20273196873734 142.8229018579894 C 0.0 **** -0.24
12967 H 102.26197991291072 66.44249412076306 143.35011122560547 H 0.0 **** 0.06
12968 H 104.03786977675252 66.54504981193088 143.408670685095 H 0.0 **** 0.06
12969 H 103.18750915715414 66.69837453819392 141.85192148451682 H 0.0 **** 0.06
12970 H 103.25103737783287 65.12343603919084 142.67943559545114 H 0.0 **** 0.06
12971 C 181.37871897177183 99.01505103008553 75.24539980691344 C 0.0 **** -0.24
12972 H 181.7418779459764 99.11017942115821 74.22218463797344 H 0.0 **** 0.06
12973 H 181.10980385897125 97.97674064386807 75.4405493576711 H 0.0 **** 0.06
12974 H 180.5026304797944 99.64915674451824 75.3810465261181 H 0.0 **** 0.06
12975 H 182.1613685158165 99.32435060079727 75.93836849933285 H 0.0 **** 0.06
12976 C 48.421607469430114 154.05275436255562 45.27765021834347 C 0.0 **** -0.24
12977 H 48.977316767177996 154.90626517207482 44.88855817141422 H 0.0 **** 0.06
12978 H 47.35341976238516 154.26868621394738 45.24311607142312 H 0.0 **** 0.06
12979 H 48.72152632812933 153.86477719132859 46.30882741291762 H 0.0 **** 0.06
12980 H 48.63523171193853 153.17280472025027 44.670853343375484 H 0.0 **** 0.06
12981 C 194.48933805571403 111.99978297751282 85.6724991582564 C 0.0 **** -0.24
12982 H 195.0350133084269 111.99449608626112 84.72871384840157 H 0.0 **** 0.06
12983 H 194.77757620472926 112.87604101098113 86.2537398793631 H 0.0 **** 0.06
12984 H 194.7259007211805 111.09579388294777 86.2332075936739 H 0.0 **** 0.06
12985 H 193.41837869126408 112.03267571375038 85.47121266620557 H 0.0 **** 0.06
12986 C 144.66476313970566 193.5993631206582 206.5817020416629 C 0.0 **** -0.24
12987 H 143.63831060155837 193.23313223161028 206.6224363184593 H 0.0 **** 0.06
12988 H 144.88625721054132 194.16035169715025 207.48889348100042 H 0.0 **** 0.06
12989 H 144.78372253969673 194.24759288833678 205.7136922716236 H 0.0 **** 0.06
12990 H 145.34812307803844 192.7541179973399 206.50039391390322 H 0.0 **** 0.06
12991 C 209.00862482901388 214.5057637612481 180.70023714243194 C 0.0 **** -0.24
12992 H 208.82015452250948 213.7120957739494 179.97663419750705 H 0.0 **** 0.06
12993 H 209.08860412743235 215.45987842668538 180.1795782820957 H 0.0 **** 0.06
12994 H 209.93943503874115 214.30020307665546 181.22859808953956 H 0.0 **** 0.06
12995 H 208.1867734624408 214.54822328519492 181.4142053755817 H 0.0 **** 0.06
12996 C 16.74460493140822 115.56427745174169 100.78190521497875 C 0.0 **** -0.24
12997 H 17.799743738717495 115.6123592143535 100.51152698216309 H 0.0 **** 0.06
12998 H 16.649861881549725 115.53485079481497 101.8670618632287 H 0.0 **** 0.06
12999 H 16.300005383109465 114.6669107241154 100.35295613333476 H 0.0 **** 0.06
13000 H 16.231413910812307 116.44540728707618 100.39490734627016 H 0.0 **** 0.06
13001 C 184.16741933491693 50.044698606451405 141.73218345853985 C 0.0 **** -0.24
13002 H 183.42265961450056 50.629838501907216 142.27027394604005 H 0.0 **** 0.06
13003 H 185.1621192599514 50.43418277903956 141.94954095124967 H 0.0 **** 0.06
13004 H 183.97687922107917 50.112021372484946 140.66075671883294 H 0.0 **** 0.06
13005 H 184.10756772874322 49.00309385727269 142.0473381253717 H 0.0 **** 0.06
13006 C 115.75367765869642 7.0587751500963805 81.81296181779919 C 0.0 **** -0.24
13007 H 115.20807668217769 6.49078912899887 81.05931163775494 H 0.0 **** 0.06
13008 H 115.04607700032632 7.587275313539465 82.45228179480625 H 0.0 **** 0.06
13009 H 116.40728126716506 7.77902284361312 81.32083203778035 H 0.0 **** 0.06
13010 H 116.35251466556112 6.378614819279079 82.41798684727974 H 0.0 **** 0.06
13011 C 124.09824354040875 94.67685234530883 109.41282912648715 C 0.0 **** -0.24
13012 H 123.93337092075375 93.99260068492892 108.57993607331407 H 0.0 **** 0.06
13013 H 123.3004155520244 94.55595764621292 110.1454239018547 H 0.0 **** 0.06
13014 H 124.10304041683408 95.70313665880825 109.044771188843 H 0.0 **** 0.06
13015 H 125.05824133050429 94.4548153723362 109.88028712943508 H 0.0 **** 0.06
13016 C 169.85278963780365 41.81169570925738 16.650311772499848 C 0.0 **** -0.24
13017 H 169.3622043468684 40.87243139360106 16.906184316385662 H 0.0 **** 0.06
13018 H 170.9344391043845 41.66846417650413 16.656085593276828 H 0.0 **** 0.06
13019 H 169.5828101349461 42.57376409181012 17.38096830927647 H 0.0 **** 0.06
13020 H 169.53354627683836 42.12903208858722 15.657774403175338 H 0.0 **** 0.06
13021 C 14.443385362622223 203.71084024347658 38.539569303758526 C 0.0 **** -0.24
13022 H 15.356389686491852 203.9775737056722 39.07231174508007 H 0.0 **** 0.06
13023 H 14.52450584010603 202.6888531877131 38.16886312802865 H 0.0 **** 0.06
13024 H 14.300226242329245 204.3927830393614 37.70202431525465 H 0.0 **** 0.06
13025 H 13.593030820794695 203.78486824644716 39.21774490893381 H 0.0 **** 0.06
13026 C 138.6094871956533 130.2534977737601 152.53082947799766 C 0.0 **** -0.24
13027 H 138.44364850796626 129.27670129776214 152.98331956808846 H 0.0 **** 0.06
13028 H 138.75014121999834 130.13623788651046 151.45566589751473 H 0.0 **** 0.06
13029 H 139.49798635397627 130.7104545612729 152.96661712983166 H 0.0 **** 0.06
13030 H 137.74476881807914 130.89170404799546 152.7163720307193 H 0.0 **** 0.06
13031 C 63.55103769155508 152.88250436750133 47.268135995148725 C 0.0 **** -0.24
13032 H 63.46639842955477 152.75088178680335 46.189986743997 H 0.0 **** 0.06
13033 H 63.026630850448754 152.07173035025363 47.7753313421984 H 0.0 **** 0.06
13034 H 63.10696985115959 153.83718281473108 47.5528498492813 H 0.0 **** 0.06
13035 H 64.60303034685327 152.87107475012562 47.55424779756072 H 0.0 **** 0.06
13036 C 94.2087091478569 79.83623876527183 172.66255965363428 C 0.0 **** -0.24
13037 H 94.43168732820334 79.54659796428184 171.63556497108067 H 0.0 **** 0.06
13038 H 94.48503466132235 79.02434713435655 173.33662371375706 H 0.0 **** 0.06
13039 H 93.1432339539532 80.04274397376123 172.75879546008528 H 0.0 **** 0.06
13040 H 94.77754601616408 80.73031947197926 172.91924712192744 H 0.0 **** 0.06
13041 C 31.61518515806847 12.878532378133457 24.471725713528713 C 0.0 **** -0.24
13042 H 32.2932300478563 12.384483906984428 25.169093196965292 H 0.0 **** 0.06
13043 H 31.659589729796892 12.376286131747975 23.50513061427887 H 0.0 **** 0.06
13044 H 31.912487684927896 13.920960712616363 24.353935537750658 H 0.0 **** 0.06
13045 H 30.598182358137706 12.831517107140428 24.86037593750109 H 0.0 **** 0.06
13046 C 9.489560264930603 13.200853952368305 26.463063539806825 C 0.0 **** -0.24
13047 H 10.09523487154999 12.72910926401866 25.688581535307094 H 0.0 **** 0.06
13048 H 9.730007171324104 12.76196229550294 27.430741437674868 H 0.0 **** 0.06
13049 H 8.433091234671537 13.043447035114141 26.244048927981908 H 0.0 **** 0.06
13050 H 9.700052841137065 14.270189397561865 26.486806367274397 H 0.0 **** 0.06
13051 C 168.99460165618268 114.43544592547171 92.61145539891133 C 0.0 **** -0.24
13052 H 168.51799353360613 115.2748873956023 92.10549013571593 H 0.0 **** 0.06
13053 H 168.76129612810414 113.5123977814139 92.08045276591871 H 0.0 **** 0.06
13054 H 168.62375721178034 114.37004197913559 93.63486043918773 H 0.0 **** 0.06
13055 H 170.0742111759813 114.58467478096769 92.62581398226125 H 0.0 **** 0.06
13056 C 213.59807453458978 179.35019208570765 149.3683855840215 C 0.0 **** -0.24
13057 H 213.63643541794448 179.9730143048206 150.26199347312945 H 0.0 **** 0.06
13058 H 212.6534102451744 178.8067780161669 149.34515482562125 H 0.0 **** 0.06
13059 H 214.42650679148795 178.64115369539542 149.38555282789275 H 0.0 **** 0.06
13060 H 213.6784801763905 179.98024712430595 148.4823891262319 H 0.0 **** 0.06
13061 C 144.33113716459792 25.023306568719647 104.31752998537154 C 0.0 **** -0.24
13062 H 143.64317161648802 25.864114355398726 104.39428787732349 H 0.0 **** 0.06
13063 H 145.28377242282227 25.289584834434606 104.7764102548149 H 0.0 **** 0.06
13064 H 144.49022907969044 24.779317427730376 103.26685010567859 H 0.0 **** 0.06
13065 H 143.9087022438727 24.159728427776315 104.83056961100336 H 0.0 **** 0.06
13066 C 212.73257255346778 180.42371688664534 99.69478808086568 C 0.0 **** -0.24
13067 H 212.26088861971718 181.1182143247109 98.99918925866727 H 0.0 **** 0.06
13068 H 213.46921267551483 179.8220996130658 99.16221778010016 H 0.0 **** 0.06
13069 H 211.97376393334343 179.77051388399175 100.12714611996053 H 0.0 **** 0.06
13070 H 213.22516868043778 180.98418244689782 100.4885012061546 H 0.0 **** 0.06
13071 C 176.3430306144334 122.22847690685592 60.765111944480736 C 0.0 **** -0.24
13072 H 176.92520234568173 122.91987531315237 60.156994823319735 H 0.0 **** 0.06
13073 H 175.28294043231548 122.45827836362594 60.663400522857785 H 0.0 **** 0.06
13074 H 176.63856202350684 122.32670322982432 61.80989465878582 H 0.0 **** 0.06
13075 H 176.52739683866832 121.20770151830942 60.429645336476256 H 0.0 **** 0.06
13076 C 177.84156097306717 149.28099095164703 176.96307741977796 C 0.0 **** -0.24
13077 H 178.34224472027677 150.24386734811532 177.0675521904336 H 0.0 **** 0.06
13078 H 176.8205409674287 149.36040647628738 177.3381927125639 H 0.0 **** 0.06
13079 H 178.38212621720427 148.5276834435927 177.5362119178497 H 0.0 **** 0.06
13080 H 177.8216658620363 148.99391219508368 175.9118552239765 H 0.0 **** 0.06
13081 C 165.9013224185884 130.46204475444506 173.3933648905694 C 0.0 **** -0.24
13082 H 166.31012213967227 131.46689170792968 173.50218830034407 H 0.0 **** 0.06
13083 H 166.6990345597693 129.73012915876075 173.5251376472898 H 0.0 **** 0.06
13084 H 165.46801766674938 130.3528755245723 172.39885032628115 H 0.0 **** 0.06
13085 H 165.13064302731638 130.30018870713263 174.14629451184277 H 0.0 **** 0.06
13086 C 86.15313999583107 198.00357977688273 214.17647337583253 C 0.0 **** -0.24
13087 H 86.03727148273909 199.08149270031606 214.067660059127 H 0.0 **** 0.06
13088 H 86.74520440216183 197.79033423325356 215.06714516387115 H 0.0 **** 0.06
13089 H 86.65928382379947 197.6022893255348 213.2985698886506 H 0.0 **** 0.06
13090 H 85.17143660372015 197.54055043877756 214.2732070738853 H 0.0 **** 0.06
13091 C 188.6988366127764 85.09377475715233 46.04965765881124 C 0.0 **** -0.24
13092 H 189.33770160709565 84.27252609246123 46.373725982207134 H 0.0 **** 0.06
13093 H 188.37247298551802 85.66607722224192 46.91883303338051 H 0.0 **** 0.06
13094 H 187.82809364934343 84.69296779934204 45.530764981431844 H 0.0 **** 0.06
13095 H 189.25707820914846 85.74352791456424 45.37530663822537 H 0.0 **** 0.06
13096 C 138.00039641204052 99.34587599670768 49.71833400001036 C 0.0 **** -0.24
13097 H 138.7181164939064 100.1111928910098 50.01550245332807 H 0.0 **** 0.06
13098 H 138.40880327749278 98.36032733863455 49.93889416990736 H 0.0 **** 0.06
13099 H 137.805688774931 99.42862493402218 48.64867718588178 H 0.0 **** 0.06
13100 H 137.0708030467252 99.48672742718786 50.26873945644002 H 0.0 **** 0.06
13101 C 156.16727459926892 85.69446559378974 193.3166055890755 C 0.0 **** -0.24
13102 H 155.69943701637493 85.88199183174311 192.35039596676725 H 0.0 **** 0.06
13103 H 156.3849167130005 84.63059283126842 193.41515408354036 H 0.0 **** 0.06
13104 H 155.49088114251356 86.00235081882568 194.1135501950509 H 0.0 **** 0.06
13105 H 157.09556553363166 86.26315761556293 193.38754568497495 H 0.0 **** 0.06
13106 C 107.78391884071148 155.2955695665313 36.099489500656915 C 0.0 **** -0.24
13107 H 107.6886426673248 155.1293484831213 37.1721931535691 H 0.0 **** 0.06
13108 H 108.63218346328911 154.72712935108302 35.71765053646969 H 0.0 **** 0.06
13109 H 107.94245647251306 156.3570268019074 35.90915428953117 H 0.0 **** 0.06
13110 H 106.87239275971884 154.96877363001335 35.5989600230576 H 0.0 **** 0.06
13111 C 203.3367609034072 79.54108907288202 199.69591652110404 C 0.0 **** -0.24
13112 H 203.45132903744133 79.76926839091658 200.75589363831182 H 0.0 **** 0.06
13113 H 202.32310759982286 79.18731148773537 199.50743167204934 H 0.0 **** 0.06
13114 H 204.05096874109344 78.76849569188545 199.4118025258373 H 0.0 **** 0.06
13115 H 203.52364196358286 80.44135151949695 199.10937312481906 H 0.0 **** 0.06
13116 C 96.02066010005645 127.03522083554269 111.78275375652068 C 0.0 **** -0.24
13117 H 95.1059855550897 126.51264209969055 112.06254488677406 H 0.0 **** 0.06
13118 H 96.88426510103953 126.45333085243509 112.10512092351449 H 0.0 **** 0.06
13119 H 96.04039559742198 128.01341882648956 112.26346712375933 H 0.0 **** 0.06
13120 H 96.0499696683405 127.16060444054098 110.70022059606156 H 0.0 **** 0.06
13121 C 11.892879917626317 94.9118212257999 159.36853454971225 C 0.0 **** -0.24
13122 H 12.18596416021495 94.10730092954758 160.04264867023554 H 0.0 **** 0.06
13123 H 11.241824628909455 94.51366659954765 158.58989467719147 H 0.0 **** 0.06
13124 H 12.783606606581685 95.3444165174056 158.91239375532095 H 0.0 **** 0.06
13125 H 11.3621573718695 95.68053491225659 159.92922962288526 H 0.0 **** 0.06
13126 C 63.23253491974096 99.54902858871951 99.59514398926846 C 0.0 **** -0.24
13127 H 63.857619842732404 98.72363624000185 99.25445285949313 H 0.0 **** 0.06
13128 H 62.74121752294786 99.27097764571617 100.52770928463447 H 0.0 **** 0.06
13129 H 62.47967147283032 99.7711488304157 98.83938255080535 H 0.0 **** 0.06
13130 H 63.8530241579619 100.43106804960622 99.75976982333914 H 0.0 **** 0.06
13131 C 150.94467182354862 162.33691614989567 2.999381341088508 C 0.0 **** -0.24
13132 H 152.02666897296513 162.24273560136984 3.089460877109616 H 0.0 **** 0.06
13133 H 150.70395574615713 163.2306873180715 2.422371780553391 H 0.0 **** 0.06
13134 H 150.50353356854367 162.41706369983947 3.9937467545342997 H 0.0 **** 0.06
13135 H 150.5435449315512 161.45854404875362 2.4948035105307156 H 0.0 **** 0.06
13136 C 83.45350039985084 203.3790063142637 193.06498182906049 C 0.0 **** -0.24
13137 H 83.71834539479187 202.56015054846898 192.39637395190897 H 0.0 **** 0.06
13138 H 83.02994501210225 204.1985200922681 192.4853335572214 H 0.0 **** 0.06
13139 H 84.34671759754241 203.7255147090598 193.58599634716697 H 0.0 **** 0.06
13140 H 82.7210572454394 203.0311660022049 193.7927594482381 H 0.0 **** 0.06
13141 C 215.10997779121848 127.00638276422688 159.32016374473494 C 0.0 **** -0.24
13142 H 214.672234044434 126.647346665398 158.3887113149146 H 0.0 **** 0.06
13143 H 216.1474135475386 127.2932785612004 159.14672787954606 H 0.0 **** 0.06
13144 H 215.07148065708358 126.21425485652202 160.06823425804384 H 0.0 **** 0.06
13145 H 214.54837751632053 127.87068276706816 159.67606793058167 H 0.0 **** 0.06
13146 C 68.46460711311326 186.43419020373835 128.5139870083146 C 0.0 **** -0.24
13147 H 69.31270870763426 185.8376422469166 128.8522182630972 H 0.0 **** 0.06
13148 H 68.7554098794306 187.48467641673307 128.46888004320033 H 0.0 **** 0.06
13149 H 67.63650015625268 186.3156697930835 129.21185869810006 H 0.0 **** 0.06
13150 H 68.15725982221491 186.09981560114045 127.52308368027553 H 0.0 **** 0.06
13151 C 56.91039466207579 208.5720400756323 145.39154832814978 C 0.0 **** -0.24
13152 H 57.23526001041026 208.6452677712009 146.42978065233308 H 0.0 **** 0.06
13153 H 55.91086294020067 208.99627781413847 145.2940812963485 H 0.0 **** 0.06
13154 H 56.89170409382268 207.52534661464182 145.09015062537668 H 0.0 **** 0.06
13155 H 57.6026309941758 209.12240327772105 144.75472155805068 H 0.0 **** 0.06
13156 C 121.74579385427249 95.58161011437818 182.54886184843306 C 0.0 **** -0.24
13157 H 120.89282934175638 96.05447731678885 183.0358262095991 H 0.0 **** 0.06
13158 H 121.73812263212564 94.512302529061 182.76297302901293 H 0.0 **** 0.06
13159 H 122.66834276375856 96.021712315586 182.92537170538307 H 0.0 **** 0.06
13160 H 121.68142245074058 95.73729739981223 181.4725148282167 H 0.0 **** 0.06
13161 C 185.49715433364625 48.19565696575246 31.100965973061875 C 0.0 **** -0.24
13162 H 184.59306914005333 48.5132026736777 31.61969114966766 H 0.0 **** 0.06
13163 H 185.34372019371838 47.203941983424556 30.676418589049945 H 0.0 **** 0.06
13164 H 186.3285255240504 48.16406219761501 31.805977937472875 H 0.0 **** 0.06
13165 H 185.72443404073204 48.90150681685104 30.30262015549357 H 0.0 **** 0.06
13166 C 68.74925574633484 64.05346327579262 22.222718508754696 C 0.0 **** -0.24
13167 H 69.36042968106659 63.763642351648684 23.07753977228238 H 0.0 **** 0.06
13168 H 68.13118948310073 63.210055635838245 21.91494784227396 H 0.0 **** 0.06
13169 H 69.39770287861258 64.35032698768123 21.397998313012025 H 0.0 **** 0.06
13170 H 68.11046541380604 64.89090669057622 22.500829190255885 H 0.0 **** 0.06
13171 C 32.36302714109766 168.17484685490052 151.95587170689316 C 0.0 **** -0.24
13172 H 32.1948783757918 167.10172439422917 152.04006371557745 H 0.0 **** 0.06
13173 H 31.40444303705516 168.6933974508642 151.94939661786856 H 0.0 **** 0.06
13174 H 32.897593545098346 168.38670817686113 151.0287305564682 H 0.0 **** 0.06
13175 H 32.95626804024772 168.5184500719614 152.80328376811633 H 0.0 **** 0.06
13176 C 75.34161773924802 118.65998983810364 143.81817335617512 C 0.0 **** -0.24
13177 H 74.77807882453152 119.57961330506963 143.66085931974743 H 0.0 **** 0.06
13178 H 76.18984646059067 118.86170376492989 144.47395510396615 H 0.0 **** 0.06
13179 H 75.70432160530555 118.28756199107296 142.86004260109922 H 0.0 **** 0.06
13180 H 74.69666579788156 117.91127248085233 144.27780303734778 H 0.0 **** 0.06
13181 C 166.62227729743384 61.55841595099736 9.98836488238831 C 0.0 **** -0.24
13182 H 167.58135646842368 62.070938753476355 10.056633774439291 H 0.0 **** 0.06
13183 H 166.68473983193815 60.76686159029106 9.241163922947152 H 0.0 **** 0.06
13184 H 165.84946099279125 62.27187007967888 9.698493636429191 H 0.0 **** 0.06
13185 H 166.3715622412342 61.126187780721864 10.956692767518632 H 0.0 **** 0.06
13186 C 208.66553758528568 55.57831777893337 210.88805705745955 C 0.0 **** -0.24
13187 H 208.30897165191675 54.84672622539867 211.61231367666326 H 0.0 **** 0.06
13188 H 207.9922633102795 55.60099834360447 210.03103693952508 H 0.0 **** 0.06
13189 H 209.6667003002823 55.30350212783382 210.5567283616758 H 0.0 **** 0.06
13190 H 208.69550870544919 56.56412050084083 211.3522777634323 H 0.0 **** 0.06
13191 C 168.96220974083545 27.09701071302362 3.6959594134801392 C 0.0 **** -0.24
13192 H 168.86466098023746 28.181775022228663 3.7423034972089226 H 0.0 **** 0.06
13193 H 168.27135656752523 26.700493999525918 2.9516049727865052 H 0.0 **** 0.06
13194 H 168.72920598134104 26.669436670471953 4.671836375823091 H 0.0 **** 0.06
13195 H 169.98419757258708 26.83557026092123 3.4209341341107162 H 0.0 **** 0.06
13196 C 70.48932148279904 161.15055226947186 205.6103682070318 C 0.0 **** -0.24
13197 H 70.27293566275695 160.09298522357966 205.45846935554098 H 0.0 **** 0.06
13198 H 71.32412678178063 161.44583996204176 204.97360337379789 H 0.0 **** 0.06
13199 H 70.75136216589006 161.32046405745365 206.65487709099926 H 0.0 **** 0.06
13200 H 69.61038204345887 161.74128359529948 205.35462403995894 H 0.0 **** 0.06
13201 C 204.97537127465066 36.30087710018525 186.36612777379798 C 0.0 **** -0.24
13202 H 204.36798181211367 35.89035961634275 185.55954016436334 H 0.0 **** 0.06
13203 H 205.9959227860937 35.92873218167867 186.278538380739 H 0.0 **** 0.06
13204 H 204.55738101136444 35.99648714629154 187.32625904158766 H 0.0 **** 0.06
13205 H 204.97776466944674 37.38922567053508 186.30079930253532 H 0.0 **** 0.06
13206 C 83.00229756146955 26.698908144272423 70.35289985857122 C 0.0 **** -0.24
13207 H 82.2995214929788 27.447383403394383 69.98666397420288 H 0.0 **** 0.06
13208 H 82.53854507486905 26.130061440812398 71.15992664067102 H 0.0 **** 0.06
13209 H 83.89843971757195 27.194421650557445 70.72616214553341 H 0.0 **** 0.06
13210 H 83.27131687591525 26.024405799882175 69.5407759076615 H 0.0 **** 0.06
13211 C 157.49460268781917 116.38704004634842 92.33095109691278 C 0.0 **** -0.24
13212 H 157.7099931903287 117.4004627307928 92.66910568442997 H 0.0 **** 0.06
13213 H 157.27737349065615 115.75459603118851 93.19106804311339 H 0.0 **** 0.06
13214 H 158.35966352791297 115.99067509090183 91.79824693844667 H 0.0 **** 0.06
13215 H 156.63326305597604 116.40250229985888 91.6630490859168 H 0.0 **** 0.06
13216 C 19.01872840669037 33.82730270987848 182.14620615888992 C 0.0 **** -0.24
13217 H 18.079258565329795 33.275341381963486 182.09925651049352 H 0.0 **** 0.06
13218 H 19.593076282707884 33.641636031496176 181.23770103172575 H 0.0 **** 0.06
13219 H 19.591383643246573 33.49697811642511 183.0124063476057 H 0.0 **** 0.06
13220 H 18.809306176911633 34.89312955698081 182.23215721228644 H 0.0 **** 0.06
13221 C 51.1102722676398 27.19787112110191 78.53247253921876 C 0.0 **** -0.24
13222 H 50.24790928856021 27.350446054610003 79.18141638749034 H 0.0 **** 0.06
13223 H 50.76913024314695 26.943534437775043 77.52892876420833 H 0.0 **** 0.06
13224 H 51.72106728334177 26.383911404149714 78.92619097569388 H 0.0 **** 0.06
13225 H 51.70329533241545 28.11134700202409 78.49428108327828 H 0.0 **** 0.06
13226 C 85.34246799924033 142.04992413149972 76.4349304670842 C 0.0 **** -0.24
13227 H 86.254757592637 141.46533498018067 76.55543094827703 H 0.0 **** 0.06
13228 H 85.51274146091818 143.06601781969863 76.79277082983464 H 0.0 **** 0.06
13229 H 84.53907008401474 141.5912351272434 77.00937827620186 H 0.0 **** 0.06
13230 H 85.06580543835396 142.07809571843603 75.38081409189465 H 0.0 **** 0.06
13231 C 135.01203601405246 170.20106671007176 50.37761665795233 C 0.0 **** -0.24
13232 H 136.0923835464007 170.0685703122336 50.33524894112486 H 0.0 **** 0.06
13233 H 134.5980116212931 169.56355962092124 51.158939672744054 H 0.0 **** 0.06
13234 H 134.57490086191075 169.9294423572996 49.41686320195443 H 0.0 **** 0.06
13235 H 134.7821966932633 171.2438370746441 50.598894781534426 H 0.0 **** 0.06
13236 C 180.48008953721555 171.70625806386496 99.81508118366476 C 0.0 **** -0.24
13237 H 180.0759031046771 172.2135024675203 100.69068301468498 H 0.0 **** 0.06
13238 H 179.76931067456633 170.95596684763444 99.46991075897095 H 0.0 **** 0.06
13239 H 181.4219006169809 171.22308398793362 100.07699119741973 H 0.0 **** 0.06
13240 H 180.65444360698862 172.43413633977474 99.02183782052721 H 0.0 **** 0.06
13241 C 143.1154050879154 29.429951461964038 149.24803959889886 C 0.0 **** -0.24
13242 H 142.57494863601573 28.4919310550448 149.37381189806604 H 0.0 **** 0.06
13243 H 142.70446048711995 30.179326316007547 149.92529953208276 H 0.0 **** 0.06
13244 H 143.0105837327995 29.77357236097498 148.21897628851548 H 0.0 **** 0.06
13245 H 144.16993893940952 29.27466114791156 149.4738479133303 H 0.0 **** 0.06
13246 C 124.25416064356337 47.15823725060149 154.98170084619733 C 0.0 **** -0.24
13247 H 123.59552803427441 47.85864550325418 155.49560502833754 H 0.0 **** 0.06
13248 H 123.77498247715992 46.818255740874264 154.06303114910605 H 0.0 **** 0.06
13249 H 124.44945461800158 46.30321939813092 155.62741428025504 H 0.0 **** 0.06
13250 H 125.19365603216384 47.65501940557412 154.7404871775962 H 0.0 **** 0.06
13251 C 4.163949373540426 68.14753255521622 10.617102245212536 C 0.0 **** -0.24
13252 H 3.15410760239066 67.74128320530987 10.68686058827518 H 0.0 **** 0.06
13253 H 4.258649151010772 68.99997347352246 11.290981015685318 H 0.0 **** 0.06
13254 H 4.3553661968599116 68.46885661368887 9.594037457643097 H 0.0 **** 0.06
13255 H 4.884061100101768 67.37916811063222 10.898325140830593 H 0.0 **** 0.06
13256 C 125.7769396796647 23.624815828354528 101.87811810253844 C 0.0 **** -0.24
13257 H 124.8294821859988 23.463223276349282 102.39319702688037 H 0.0 **** 0.06
13258 H 125.61804386760464 24.278284175172274 101.0205812990087 H 0.0 **** 0.06
13259 H 126.17170824013591 22.667544924460273 101.53699152056815 H 0.0 **** 0.06
13260 H 126.4879783251747 24.087844453702218 102.562021360651 H 0.0 **** 0.06
13261 C 166.38931884778194 141.650863829424 181.92336589113256 C 0.0 **** -0.24
13262 H 167.17287733172012 141.631716045561 182.680621855519 H 0.0 **** 0.06
13263 H 166.821390996436 141.41868456676355 180.94934093990554 H 0.0 **** 0.06
13264 H 165.9377054676105 142.64182615505024 181.8930650666191 H 0.0 **** 0.06
13265 H 165.6272014945348 140.91147687583674 182.1692829656074 H 0.0 **** 0.06
13266 C 36.538501932971826 162.68284668697277 57.92545772799552 C 0.0 **** -0.24
13267 H 37.60588359402671 162.85234039339332 57.78777551817272 H 0.0 **** 0.06
13268 H 36.26183341449516 162.92153954302955 58.953061450991214 H 0.0 **** 0.06
13269 H 36.307909881771664 161.63710141493556 57.72124638006402 H 0.0 **** 0.06
13270 H 35.977691922811005 163.31970630066348 57.24076574239146 H 0.0 **** 0.06
13271 C 0.08319611308435526 103.10912208711885 190.66756433012068 C 0.0 **** -0.24
13272 H -0.9368992594263332 103.49381467369979 190.68315900030427 H 0.0 **** 0.06
13273 H 0.7345375012374618 103.78626071128424 191.22053704539496 H 0.0 **** 0.06
13274 H 0.4265499408915474 103.0341779059243 189.63595701682274 H 0.0 **** 0.06
13275 H 0.10582777553028677 102.1236344904086 191.13121842211214 H 0.0 **** 0.06
13276 C 13.759393642912457 72.56304802318321 169.7929178447841 C 0.0 **** -0.24
13277 H 13.069536744090627 73.12313658939841 169.16179789531998 H 0.0 **** 0.06
13278 H 14.368395809301873 71.90558495509781 169.17227961198913 H 0.0 **** 0.06
13279 H 13.193936287329905 71.96579486405959 170.5089128144162 H 0.0 **** 0.06
13280 H 14.40553872718047 73.25758816567502 170.33090918106237 H 0.0 **** 0.06
13281 C 177.13366169518196 105.42949774445144 3.2995087277161588 C 0.0 **** -0.24
13282 H 177.19688311189674 104.51608424902805 3.8921266480366086 H 0.0 **** 0.06
13283 H 176.59745987306553 105.22445486467821 2.373171233867744 H 0.0 **** 0.06
13284 H 178.13826125352006 105.78293688395722 3.0683364329655447 H 0.0 **** 0.06
13285 H 176.60145363528738 106.19367416737292 3.8663871274508352 H 0.0 **** 0.06
13286 C 203.5754156684235 146.18803960322145 181.78485556178558 C 0.0 **** -0.24
13287 H 203.1606204484828 145.77815606536961 182.70531334680805 H 0.0 **** 0.06
13288 H 204.61709067426997 145.8788236737065 181.6876708797234 H 0.0 **** 0.06
13289 H 203.52151447776674 147.27649350236152 181.81412866192164 H 0.0 **** 0.06
13290 H 203.00548694955984 145.81806305563958 180.9334545278436 H 0.0 **** 0.06
13291 C 62.8332270283108 176.78481294237002 200.38719200242315 C 0.0 **** -0.24
13292 H 63.57200756138555 177.35387884448028 199.8228751947795 H 0.0 **** 0.06
13293 H 62.347206650890115 177.43903812148199 201.11054373815722 H 0.0 **** 0.06
13294 H 63.32858054643279 175.96716581903237 200.9108466701319 H 0.0 **** 0.06
13295 H 62.08779099333697 176.37932591214798 199.70360476541254 H 0.0 **** 0.06
13296 C 137.19362879835427 54.18631109634221 205.22359120949307 C 0.0 **** -0.24
13297 H 136.28172774525154 54.13642533747338 205.81891299066268 H 0.0 **** 0.06
13298 H 137.80197508600992 53.302756054195385 205.41706322264037 H 0.0 **** 0.06
13299 H 137.75486672502637 55.0809443313489 205.49404362287444 H 0.0 **** 0.06
13300 H 136.93429142145817 54.22502633805016 204.1654653207371 H 0.0 **** 0.06
13301 C 143.40071502535199 108.66917515721651 148.84226568269344 C 0.0 **** -0.24
13302 H 143.1539057419942 109.7289693803035 148.91471248923028 H 0.0 **** 0.06
13303 H 142.58456002170965 108.14045708961244 148.34907670777767 H 0.0 **** 0.06
13304 H 143.5477435355379 108.26084867797532 149.84185871516758 H 0.0 **** 0.06
13305 H 144.3153740429898 108.54868580083338 148.26135059317897 H 0.0 **** 0.06
13306 C 193.800057904573 68.0169222759526 40.050798746061616 C 0.0 **** -0.24
13307 H 193.06743507732529 67.21435352059808 39.96061927198525 H 0.0 **** 0.06
13308 H 193.30724439715158 68.97743115273857 39.89813345158103 H 0.0 **** 0.06
13309 H 194.57876458458827 67.8834232172079 39.2997474511734 H 0.0 **** 0.06
13310 H 194.24638054165587 67.9911508281221 41.04494867160281 H 0.0 **** 0.06
13311 C 107.04458698059341 190.31045605013838 102.73019422298519 C 0.0 **** -0.24
13312 H 106.35766713850006 190.72744609597066 103.46631755548448 H 0.0 **** 0.06
13313 H 106.57932626713733 189.44967804933003 102.24770083012466 H 0.0 **** 0.06
13314 H 107.96225384270934 189.99695458343604 103.22550367873085 H 0.0 **** 0.06
13315 H 107.27489617657028 191.0661342875029 101.97994080358295 H 0.0 **** 0.06
13316 C 199.61768082330684 175.5383729064691 178.96358452724962 C 0.0 **** -0.24
13317 H 200.0371219186343 175.85662455337962 178.00881167186674 H 0.0 **** 0.06
13318 H 200.38516876669144 175.59999654101438 179.73523141799342 H 0.0 **** 0.06
13319 H 199.26737510517478 174.50901475776675 178.88052514694778 H 0.0 **** 0.06
13320 H 198.78212552157632 176.18657333462548 179.2272769144579 H 0.0 **** 0.06
13321 C 102.52316426535242 125.28470028076963 105.1210059859571 C 0.0 **** -0.24
13322 H 102.30604242521241 124.81793597640417 104.16101155789916 H 0.0 **** 0.06
13323 H 102.03135217118302 126.25658939603859 105.17154867642203 H 0.0 **** 0.06
13324 H 103.60044053218178 125.41565078051919 105.22549979670488 H 0.0 **** 0.06
13325 H 102.15482193283236 124.64862497011653 105.9259639128024 H 0.0 **** 0.06
13326 C 49.51310355039857 35.31896495203043 216.02151017937916 C 0.0 **** -0.24
13327 H 48.63375055646179 34.80449131570566 215.63525985921098 H 0.0 **** 0.06
13328 H 50.20114295784819 34.58978058849203 216.45128931278043 H 0.0 **** 0.06
13329 H 49.20898218111215 36.02879119136294 216.79102629101394 H 0.0 **** 0.06
13330 H 50.00822652795526 35.85269939485238 215.21067733127308 H 0.0 **** 0.06
13331 C 134.29955334689572 204.18872110297386 108.9083552979014 C 0.0 **** -0.24
13332 H 134.92625982144926 203.532315367097 108.30416273664441 H 0.0 **** 0.06
13333 H 133.98483029644933 205.04340494927584 108.30879372773875 H 0.0 **** 0.06
13334 H 134.86595683820764 204.5383953878504 109.77075955029936 H 0.0 **** 0.06
13335 H 133.42114994710852 203.63980819567868 109.24795097831084 H 0.0 **** 0.06
13336 C 210.06194740339595 24.63755947386842 96.8324759704213 C 0.0 **** -0.24
13337 H 209.53991850389514 25.585785910391408 96.95601369583243 H 0.0 **** 0.06
13338 H 210.72799971822607 24.69889970147068 95.97140638010704 H 0.0 **** 0.06
13339 H 209.33590993789542 23.8407947620655 96.67378850032084 H 0.0 **** 0.06
13340 H 210.6447795259909 24.4244242106775 97.72822660688276 H 0.0 **** 0.06
13341 C 204.76790447241024 133.66507193015434 67.63011617159003 C 0.0 **** -0.24
13342 H 205.14028627381322 133.90721297744238 68.62505970204245 H 0.0 **** 0.06
13343 H 205.4091035244508 132.9107467642475 67.1750838199294 H 0.0 **** 0.06
13344 H 204.77014334807734 134.56426634039093 67.01218933494044 H 0.0 **** 0.06
13345 H 203.75036111113687 133.2800285402302 67.70666195107339 H 0.0 **** 0.06
13346 C 210.02315307175556 7.425355912365887 174.81361839104403 C 0.0 **** -0.24
13347 H 210.01409020947025 7.246018842040996 175.88823143690718 H 0.0 **** 0.06
13348 H 210.20143503958437 6.485137747900637 174.29048504009103 H 0.0 **** 0.06
13349 H 210.8162517701792 8.132459958696131 174.5700358325356 H 0.0 **** 0.06
13350 H 209.06224083067968 7.837063301770712 174.50503480961845 H 0.0 **** 0.06
13351 C 108.62815289548645 216.33837154829146 108.73904553145503 C 0.0 **** -0.24
13352 H 108.65389296404793 216.64234417322547 109.78568359486674 H 0.0 **** 0.06
13353 H 109.28638681115596 215.48224343733648 108.59292606776471 H 0.0 **** 0.06
13354 H 108.96292490301623 217.1653110688671 108.11255700498053 H 0.0 **** 0.06
13355 H 107.6093213233054 216.06485635258883 108.46563413248175 H 0.0 **** 0.06
13356 C 162.17734388543528 136.25991313622393 154.11036057578855 C 0.0 **** -0.24
13357 H 161.30111349632602 135.8688974262924 153.59279592864908 H 0.0 **** 0.06
13358 H 162.97338578678875 136.44343003943436 153.3884693230899 H 0.0 **** 0.06
13359 H 162.5167837957258 135.53289445736135 154.8489772188147 H 0.0 **** 0.06
13360 H 161.9176822071265 137.19205402208854 154.6116282782441 H 0.0 **** 0.06
13361 C 71.14399100497366 84.41726808679624 6.517536657256997 C 0.0 **** -0.24
13362 H 70.3560913567336 84.9686535474338 6.00523075192541 H 0.0 **** 0.06
13363 H 71.59584149134207 83.70475921854955 5.82731394702698 H 0.0 **** 0.06
13364 H 70.71936505760891 83.88207024691633 7.366767609867054 H 0.0 **** 0.06
13365 H 71.90426109840041 85.1133239244511 6.869959370631179 H 0.0 **** 0.06
13366 C 54.47468110091002 47.865252463458404 39.54018154397198 C 0.0 **** -0.24
13367 H 54.2848519903996 47.10328979470498 40.29539338024517 H 0.0 **** 0.06
13368 H 55.13154573529137 47.45925061693576 38.77120268763514 H 0.0 **** 0.06
13369 H 54.95109223806867 48.72828738480813 40.00703518002075 H 0.0 **** 0.06
13370 H 53.53137034661755 48.17170286071554 39.087912691665736 H 0.0 **** 0.06
13371 C 150.54080083833293 85.14251104728044 183.41918762956192 C 0.0 **** -0.24
13372 H 150.30959548958106 85.0569746634161 184.48114090416144 H 0.0 **** 0.06
13373 H 150.28706979781884 86.14394352621542 183.07218953406925 H 0.0 **** 0.06
13374 H 149.96149656533316 84.40634343712998 182.86147000038846 H 0.0 **** 0.06
13375 H 151.60506519112602 84.96144122261995 183.26373902658264 H 0.0 **** 0.06
13376 C 197.73942554548637 18.557738916512832 19.855716521818877 C 0.0 **** -0.24
13377 H 197.9026879525881 18.5972147392539 20.93374630841494 H 0.0 **** 0.06
13378 H 197.6604694779312 19.57229467500602 19.463950386448175 H 0.0 **** 0.06
13379 H 196.81848352634086 18.013439284061235 19.647858792474096 H 0.0 **** 0.06
13380 H 198.57784914470008 18.04769809793423 19.38101306277153 H 0.0 **** 0.06
13381 C 184.4064534559055 157.83236875368829 15.80432520698595 C 0.0 **** -0.24
13382 H 183.6787950406267 158.45429357010926 16.326179495693097 H 0.0 **** 0.06
13383 H 184.02439843972275 156.8147798411793 15.726524845148575 H 0.0 **** 0.06
13384 H 185.34386444171787 157.828512263113 16.35965023929505 H 0.0 **** 0.06
13385 H 184.57633690206845 158.23428039563095 14.80560313404041 H 0.0 **** 0.06
13386 C 138.07704683002794 23.77100380145319 194.2357527093802 C 0.0 **** -0.24
13387 H 136.9990335353133 23.747626899235343 194.39319153050798 H 0.0 **** 0.06
13388 H 138.3334570156211 24.620325805652215 193.60164222610214 H 0.0 **** 0.06
13389 H 138.39313357279752 22.847090868204816 193.75123934271517 H 0.0 **** 0.06
13390 H 138.58231774253886 23.8682330908797 195.1963097849245 H 0.0 **** 0.06
13391 C 76.5112792962738 181.51844928239763 136.97932845102457 C 0.0 **** -0.24
13392 H 76.486733283926 180.49487888999735 137.3544528267222 H 0.0 **** 0.06
13393 H 76.4054422451663 181.51055736356147 135.89478275685923 H 0.0 **** 0.06
13394 H 77.46133755490375 181.98096698947154 137.24898532916905 H 0.0 **** 0.06
13395 H 75.69267380992868 182.08644757392062 137.42173114227376 H 0.0 **** 0.06
13396 C 154.31909698861062 44.54843914409918 216.5859610872435 C 0.0 **** -0.24
13397 H 154.38480866205833 43.658185927766965 217.2122448411067 H 0.0 **** 0.06
13398 H 155.2390663458279 45.124480224112446 216.67584524111015 H 0.0 **** 0.06
13399 H 153.4753091080965 45.157698900322046 216.90982942189436 H 0.0 **** 0.06
13400 H 154.1755982917348 44.250947055103936 215.54712774139404 H 0.0 **** 0.06
13401 C 25.192953336738924 79.62948621298335 158.53830930175724 C 0.0 **** -0.24
13402 H 24.926904876374834 78.63761123078581 158.90441499967667 H 0.0 **** 0.06
13403 H 26.2518134141217 79.81191613240992 158.721079085216 H 0.0 **** 0.06
13404 H 24.59992800790789 80.38002447344974 159.06103525074786 H 0.0 **** 0.06
13405 H 24.992769974213147 79.68870756276988 157.46888582377449 H 0.0 **** 0.06
13406 C 20.288353435852656 185.75008706286005 176.92295564338372 C 0.0 **** -0.24
13407 H 19.278063133487848 185.64113019183114 177.31629141314542 H 0.0 **** 0.06
13408 H 20.581188516709048 186.800081517961 176.9602440094944 H 0.0 **** 0.06
13409 H 20.315074277261587 185.40211751349042 175.8898877164486 H 0.0 **** 0.06
13410 H 20.977622181710785 185.1581922449819 177.52382603677034 H 0.0 **** 0.06
13411 C 52.24872266669087 143.27908787850714 146.19128404900408 C 0.0 **** -0.24
13412 H 52.05407817443876 142.72832079447107 145.2707465504671 H 0.0 **** 0.06
13413 H 53.16303013361886 142.9038512417477 146.65141497105958 H 0.0 **** 0.06
13414 H 51.413131373020576 143.14393018651225 146.8781266271194 H 0.0 **** 0.06
13415 H 52.36342416170993 144.33847230940245 145.96369161320814 H 0.0 **** 0.06
13416 C 188.04675029070438 1.396460994130912 100.9318543151038 C 0.0 **** -0.24
13417 H 188.9259634232107 1.7547207150257336 100.3973008941013 H 0.0 **** 0.06
13418 H 188.2651753142756 1.348976895950571 101.99883693514732 H 0.0 **** 0.06
13419 H 187.78084897189586 0.40290156848691083 100.57051057483028 H 0.0 **** 0.06
13420 H 187.21460734702816 2.0796685957307943 100.76205552108314 H 0.0 **** 0.06
13421 C 111.20811653730762 71.71924962676196 204.14591767803267 C 0.0 **** -0.24
13422 H 112.0337646981694 71.71458613265675 204.85762513573573 H 0.0 **** 0.06
13423 H 110.26459456340585 71.81083409503508 204.68509086670872 H 0.0 **** 0.06
13424 H 111.21313010516694 70.79008871438008 203.57622390367516 H 0.0 **** 0.06
13425 H 111.3209708064506 72.56311360249275 203.46533290008767 H 0.0 **** 0.06
13426 C 38.57722561151388 137.35657705250077 124.0599676007078 C 0.0 **** -0.24
13427 H 38.45694575851401 136.57971272997185 124.81508131357155 H 0.0 **** 0.06
13428 H 38.80170394179662 136.8959080895466 123.09730891609054 H 0.0 **** 0.06
13429 H 39.39567428294157 138.01665933536646 124.34649208709517 H 0.0 **** 0.06
13430 H 37.65544323861306 137.93250731475524 123.98238077997114 H 0.0 **** 0.06
13431 C 127.19270762082864 127.96991591585675 152.37511946787987 C 0.0 **** -0.24
13432 H 126.63240845530113 127.6906317822627 151.48344052551892 H 0.0 **** 0.06
13433 H 126.6257249247896 127.68996207179094 153.26275768144978 H 0.0 **** 0.06
13434 H 127.3620555602147 129.04743491035435 152.3756255337708 H 0.0 **** 0.06
13435 H 128.15222539579656 127.45229782329301 152.37762845561224 H 0.0 **** 0.06
13436 C 64.32715231938562 161.217504610025 128.697812067705 C 0.0 **** -0.24
13437 H 63.612289377346244 161.45951876852715 127.91098726645951 H 0.0 **** 0.06
13438 H 65.3369844393061 161.44195423938493 128.35193981048423 H 0.0 **** 0.06
13439 H 64.2528297745304 160.15893421552508 128.94417966635854 H 0.0 **** 0.06
13440 H 64.10582123564507 161.8136759720166 129.58404365379454 H 0.0 **** 0.06
13441 C 93.05584146273794 131.82152019030025 23.603951459577686 C 0.0 **** -0.24
13442 H 93.00901453459626 130.99685371453467 24.315342760707438 H 0.0 **** 0.06
13443 H 92.31105612627105 131.66933025353643 22.822321640276712 H 0.0 **** 0.06
13444 H 94.04929122842974 131.86059121297188 23.158208104208413 H 0.0 **** 0.06
13445 H 92.85222962562578 132.7594704471287 24.122346775282054 H 0.0 **** 0.06
13446 C 147.94499146667022 202.54497192446303 72.14305677021542 C 0.0 **** -0.24
13447 H 147.49910476724136 202.14178969884622 71.23364471512616 H 0.0 **** 0.06
13448 H 147.51130689261254 203.52184557413108 72.35745990307225 H 0.0 **** 0.06
13449 H 149.02127825229275 202.64612859162796 72.00615093391286 H 0.0 **** 0.06
13450 H 147.74592899894935 201.8677441783873 72.9740608995076 H 0.0 **** 0.06
13451 C 154.5033521762466 48.63576581567281 45.00962996767555 C 0.0 **** -0.24
13452 H 155.57895306393158 48.78402744256813 45.11109609781279 H 0.0 **** 0.06
13453 H 153.9910177529573 49.113767973170695 45.844403893966955 H 0.0 **** 0.06
13454 H 154.2832553106881 47.568402010658616 45.00971653739268 H 0.0 **** 0.06
13455 H 154.1629939699444 49.077050603265405 44.073054205480474 H 0.0 **** 0.06
13456 C 42.41908690088539 113.0647250442545 144.45119548390505 C 0.0 **** -0.24
13457 H 42.27552805846227 113.78863984432208 145.25347433894007 H 0.0 **** 0.06
13458 H 42.324289181797496 112.05472064667923 144.85195435545296 H 0.0 **** 0.06
13459 H 43.411584759925574 113.19270784412556 144.02086942829294 H 0.0 **** 0.06
13460 H 41.6644148577397 113.22292979880795 143.68065378949586 H 0.0 **** 0.06
13461 C 68.1570671784397 78.68339753667145 97.16705828227884 C 0.0 **** -0.24
13462 H 67.87415580139466 78.63012519411403 96.11545505014885 H 0.0 **** 0.06
13463 H 68.29117912905222 77.67538070477512 97.55812243244787 H 0.0 **** 0.06
13464 H 67.37203428685544 79.18973710420364 97.72856049546033 H 0.0 **** 0.06
13465 H 69.0895065397829 79.2393758587378 97.26468040669943 H 0.0 **** 0.06
13466 C 170.19692227175113 3.6027057529320317 189.27729468668213 C 0.0 **** -0.24
13467 H 171.16369417249066 4.007294169749386 189.57764356573583 H 0.0 **** 0.06
13468 H 169.40116718763727 4.23584528355515 189.66947871759197 H 0.0 **** 0.06
13469 H 170.08751593474324 2.593006007709434 189.67216910024993 H 0.0 **** 0.06
13470 H 170.1377683732012 3.576019847610006 188.18880865974438 H 0.0 **** 0.06
13471 C 121.2910610108513 99.04477961644102 73.08401277216437 C 0.0 **** -0.24
13472 H 121.67086388843613 100.02694687835219 73.36495827560593 H 0.0 **** 0.06
13473 H 122.0937051287258 98.46004849048347 72.63356068460662 H 0.0 **** 0.06
13474 H 120.48040967038956 99.1624154571075 72.36527892652309 H 0.0 **** 0.06
13475 H 120.92002640515541 98.53107478389336 73.97065576466487 H 0.0 **** 0.06
13476 C 145.57392806334207 139.76908023041824 46.54696243848261 C 0.0 **** -0.24
13477 H 146.13353493584134 140.7036384463459 46.50256386640038 H 0.0 **** 0.06
13478 H 144.70263973689134 139.8981979640394 47.18938862638046 H 0.0 **** 0.06
13479 H 146.21046266731264 138.98268527801224 46.95120963378339 H 0.0 **** 0.06
13480 H 145.2477088728321 139.4937160241908 45.544009432956884 H 0.0 **** 0.06
13481 C 107.8581967252028 208.75039431971638 1.0207615725435986 C 0.0 **** -0.24
13482 H 108.73675977419173 208.11186500438197 0.9252815780292849 H 0.0 **** 0.06
13483 H 108.09971095026093 209.7538911779035 0.6699866075935077 H 0.0 **** 0.06
13484 H 107.55356103997123 208.79407357238242 2.066462945077582 H 0.0 **** 0.06
13485 H 107.04487344768167 208.34116001534508 0.42239575759634107 H 0.0 **** 0.06
13486 C 137.12705833303102 156.99157473615662 134.8897559321345 C 0.0 **** -0.24
13487 H 136.9174569514771 157.45027557306804 133.92314228152958 H 0.0 **** 0.06
13488 H 136.32952261674274 156.291194685013 135.1395272610696 H 0.0 **** 0.06
13489 H 137.1820990704457 157.7660933466173 135.65384136764595 H 0.0 **** 0.06
13490 H 138.07614739968562 156.45976365273293 134.8411347905993 H 0.0 **** 0.06
13491 C 214.5728883537814 75.63511071006252 68.6618093378359 C 0.0 **** -0.24
13492 H 214.91015569878883 75.84769145446694 67.64768444923942 H 0.0 **** 0.06
13493 H 214.13473508758733 74.63751969272391 68.69774010627793 H 0.0 **** 0.06
13494 H 213.8260302098347 76.37152633546765 68.95822808535499 H 0.0 **** 0.06
13495 H 215.42224752836086 75.68409069744109 69.34469961067907 H 0.0 **** 0.06
13496 C 140.454145966297 41.81348240876814 57.56223573013193 C 0.0 **** -0.24
13497 H 140.60903984259915 42.47353777517404 58.41625443745522 H 0.0 **** 0.06
13498 H 141.34664461410597 41.208483632116454 57.40405933491155 H 0.0 **** 0.06
13499 H 140.25776957845721 42.412128625315034 56.6726582115661 H 0.0 **** 0.06
13500 H 139.6019658147934 41.16234008138598 57.75701456909002 H 0.0 **** 0.06
13501 C 183.30551102377328 51.38174311030133 29.95376785424196 C 0.0 **** -0.24
13502 H 184.34046877162177 51.546353995617665 29.654958812526047 H 0.0 **** 0.06
13503 H 183.1320877004864 50.31403889200078 30.08972813322808 H 0.0 **** 0.06
13504 H 182.63909411245817 51.762355508154144 29.18039871715662 H 0.0 **** 0.06
13505 H 183.11070810489736 51.903327593497806 30.891033340906915 H 0.0 **** 0.06
13506 C 78.74435798881704 14.266627905449326 57.075880177937506 C 0.0 **** -0.24
13507 H 78.87714013966622 13.424839948290668 57.75596552795207 H 0.0 **** 0.06
13508 H 79.47349296958329 14.19982536949884 56.26877502506855 H 0.0 **** 0.06
13509 H 78.88868532527779 15.199795866528007 57.62085111468821 H 0.0 **** 0.06
13510 H 77.73717966063437 14.241354457073015 56.65983786601274 H 0.0 **** 0.06
13511 C 36.915420890623295 161.4132237267248 3.433751600469698 C 0.0 **** -0.24
13512 H 35.91448447632766 161.2134727284669 3.8153219838594836 H 0.0 **** 0.06
13513 H 36.93210824371141 161.24994521449662 2.355484554834952 H 0.0 **** 0.06
13514 H 37.62709690182362 160.74094981051317 3.913711166559281 H 0.0 **** 0.06
13515 H 37.187548531855555 162.44615594089305 3.6500655372504696 H 0.0 **** 0.06
13516 C 113.15298277353328 193.69108719839042 63.01724657567034 C 0.0 **** -0.24
13517 H 114.05998355720682 193.7306906376434 62.41433175890096 H 0.0 **** 0.06
13518 H 113.41531754386419 193.4831014145804 64.05453174262225 H 0.0 **** 0.06
13519 H 112.5013793852526 192.90269527283633 62.64157475241079 H 0.0 **** 0.06
13520 H 112.63626666221244 194.64985155929665 62.958633235731824 H 0.0 **** 0.06
13521 C 166.15199351794465 147.8966188090123 140.77926336281536 C 0.0 **** -0.24
13522 H 166.15598809673236 148.55298243979223 141.6497390786721 H 0.0 **** 0.06
13523 H 165.16645847324318 147.44304792028947 140.67236496790935 H 0.0 **** 0.06
13524 H 166.90043724077873 147.11472742953447 140.90985819102116 H 0.0 **** 0.06
13525 H 166.38368556664102 148.47710511630117 139.88654080246937 H 0.0 **** 0.06
13526 C 59.89515923737575 106.62321295300076 105.96391083029631 C 0.0 **** -0.24
13527 H 59.37153755345527 106.79106494288463 105.02267750046242 H 0.0 **** 0.06
13528 H 60.811844443343745 107.21247821980928 105.97952524166361 H 0.0 **** 0.06
13529 H 60.14020180290443 105.56553947897142 106.06039968370102 H 0.0 **** 0.06
13530 H 59.25496489519621 106.92436118655245 106.7935782911682 H 0.0 **** 0.06
13531 C 46.96361458505379 186.95530101034203 129.70511442711495 C 0.0 **** -0.24
13532 H 46.642642468241775 186.62349090247707 128.7177188181127 H 0.0 **** 0.06
13533 H 47.956132546386755 187.4003990743609 129.63414296208532 H 0.0 **** 0.06
13534 H 46.99442315954724 186.10196644574685 130.38203766986965 H 0.0 **** 0.06
13535 H 46.25914852170871 187.69604143981664 130.0845433829283 H 0.0 **** 0.06
13536 C 204.26285396295322 82.05661500854883 1.1394631676093638 C 0.0 **** -0.24
13537 H 204.2636260490912 81.26770962183592 1.8912934830403572 H 0.0 **** 0.06
13538 H 203.2857551708022 82.53955447199114 1.120580233768834 H 0.0 **** 0.06
13539 H 204.47442832925853 81.62533907894313 0.16093391420341163 H 0.0 **** 0.06
13540 H 205.02791170037256 82.79301993504593 1.384590833058894 H 0.0 **** 0.06
13541 C 37.197904999198784 158.73239454477795 140.8685487837892 C 0.0 **** -0.24
13542 H 36.17265283217094 158.99711749233853 141.12938189368816 H 0.0 **** 0.06
13543 H 37.189103828169095 157.99592660818308 140.0646509888029 H 0.0 **** 0.06
13544 H 37.697754550143 158.31299476400176 141.7412442484827 H 0.0 **** 0.06
13545 H 37.730449104698266 159.62531863297806 140.53863589657652 H 0.0 **** 0.06
13546 C 79.6060820541215 133.26863775263166 213.21716424497185 C 0.0 **** -0.24
13547 H 79.12271558476029 132.29217574052956 213.19872729810393 H 0.0 **** 0.06
13548 H 78.84666238008451 134.0505909636218 213.1955290830673 H 0.0 **** 0.06
13549 H 80.2551695930929 133.36829110338783 212.34645778773947 H 0.0 **** 0.06
13550 H 80.20000910881366 133.3638451220301 214.12598729793427 H 0.0 **** 0.06
13551 C 198.80309301206435 59.85538968207544 93.03728587668256 C 0.0 **** -0.24
13552 H 197.7374752773942 60.08139874508066 93.07464738374863 H 0.0 **** 0.06
13553 H 199.34064802305502 60.53333881645176 93.700342978369 H 0.0 **** 0.06
13554 H 199.1658364585964 59.98112650912776 92.01643495555753 H 0.0 **** 0.06
13555 H 198.9674379431804 58.826681670228425 93.35744162104784 H 0.0 **** 0.06
13556 C 7.321908074035051 59.90551276153998 113.48461453400235 C 0.0 **** -0.24
13557 H 8.215729773544297 60.5277528473689 113.45559450525433 H 0.0 **** 0.06
13558 H 6.7378380102347535 60.06695920385009 112.57709131708837 H 0.0 **** 0.06
13559 H 6.721514323261914 60.171822090914034 114.35480981712898 H 0.0 **** 0.06
13560 H 7.61052024720594 58.85633665525559 113.54847100496234 H 0.0 **** 0.06
13561 C 167.0434343190699 129.82875608142018 152.35243318773274 C 0.0 **** -0.24
13562 H 166.4688287064244 130.06205739191574 151.45541978522493 H 0.0 **** 0.06
13563 H 168.09382263407957 129.70243492275574 152.08822397937877 H 0.0 **** 0.06
13564 H 166.66678917421166 128.90727497103683 152.7955540763022 H 0.0 **** 0.06
13565 H 166.94514616796152 130.644002470509 153.0688847858235 H 0.0 **** 0.06
13566 C 210.28760220932145 137.4432270503969 113.29881290611856 C 0.0 **** -0.24
13567 H 210.73000083271694 137.86423706040836 112.39556090447017 H 0.0 **** 0.06
13568 H 209.79129820990804 138.23474932047122 113.86242892189325 H 0.0 **** 0.06
13569 H 211.07044977112707 136.99623343388782 113.91142333352677 H 0.0 **** 0.06
13570 H 209.5600169563123 136.68003304490287 113.02502517035627 H 0.0 **** 0.06
13571 C 87.1812421390623 28.8257926126644 33.208744549763736 C 0.0 **** -0.24
13572 H 87.37491859582127 27.814429225654635 32.85290940923349 H 0.0 **** 0.06
13573 H 87.1975232324586 29.517140412226638 32.366023191398256 H 0.0 **** 0.06
13574 H 87.94855860071175 29.111206856336423 33.92857320903602 H 0.0 **** 0.06
13575 H 86.20215926590339 28.861164349871842 33.68783924406836 H 0.0 **** 0.06
13576 C 96.0474009873288 191.73003733785697 197.02344299638082 C 0.0 **** -0.24
13577 H 96.15793068937798 191.9789859245992 195.96857338210685 H 0.0 **** 0.06
13578 H 96.91830419908247 192.08723942182021 197.57362788796695 H 0.0 **** 0.06
13579 H 95.96592771895301 190.64882913459803 197.13475365774386 H 0.0 **** 0.06
13580 H 95.14915277040986 192.2048460065916 197.41672150610765 H 0.0 **** 0.06
13581 C 161.1393532701812 22.60626425598673 31.056128854371934 C 0.0 **** -0.24
13582 H 161.74879412416846 21.921606436683334 31.646189577305222 H 0.0 **** 0.06
13583 H 161.49221372864739 22.61033927305985 30.02460229836771 H 0.0 **** 0.06
13584 H 161.21795042508376 23.61139013985445 31.470625638683146 H 0.0 **** 0.06
13585 H 160.09911810389286 22.282204885477995 31.083668930440012 H 0.0 **** 0.06
13586 C 74.65335158564515 119.14239867696519 9.692872666486437 C 0.0 **** -0.24
13587 H 73.7186087330431 119.55780134378169 10.068701818133093 H 0.0 **** 0.06
13588 H 74.61800474210462 118.05450747723957 9.754908812334804 H 0.0 **** 0.06
13589 H 75.4835397604197 119.51408322187736 10.292509481784947 H 0.0 **** 0.06
13590 H 74.7930646157027 119.44221101871456 8.654380027245395 H 0.0 **** 0.06
13591 C 130.28736324599788 181.2939319935673 128.52657750562184 C 0.0 **** -0.24
13592 H 129.5218153993281 180.5561931285588 128.28965564036196 H 0.0 **** 0.06
13593 H 129.82493717825423 182.1566937538126 129.00649147765262 H 0.0 **** 0.06
13594 H 130.78198856771712 181.61050763339063 127.60819534366793 H 0.0 **** 0.06
13595 H 131.02171447374593 180.85235338011654 129.20097038480446 H 0.0 **** 0.06
13596 C 48.63962025875492 153.80647455637973 1.509004689606769 C 0.0 **** -0.24
13597 H 49.43297721502506 154.5536315641919 1.5332180060592862 H 0.0 **** 0.06
13598 H 47.670456037773334 154.30412466003594 1.554504569386097 H 0.0 **** 0.06
13599 H 48.74500538923644 153.13825242751602 2.3634157672969707 H 0.0 **** 0.06
13600 H 48.71067317734983 153.2316859844687 0.5860530641609216 H 0.0 **** 0.06
13601 C 148.54290911463903 197.99791233120882 135.7317672829201 C 0.0 **** -0.24
13602 H 149.41678364160686 198.21292751437323 136.3472247782105 H 0.0 **** 0.06
13603 H 147.90848252794314 197.27331960846303 136.2426473433515 H 0.0 **** 0.06
13604 H 148.86517573802024 197.58738862462678 134.77431615449376 H 0.0 **** 0.06
13605 H 147.98331299574397 198.91751495464246 135.56236738515287 H 0.0 **** 0.06
13606 C 200.94043158828384 83.23444770748581 10.030912420803816 C 0.0 **** -0.24
13607 H 200.72826154029775 84.2615731876035 10.326977021766623 H 0.0 **** 0.06
13608 H 201.61019865600142 83.23545649025185 9.170582132417564 H 0.0 **** 0.06
13609 H 200.00959147752187 82.73325508544717 9.766867409153235 H 0.0 **** 0.06
13610 H 201.41434171360675 82.70820849144307 10.8602535074495 H 0.0 **** 0.06
13611 C 11.024140111077486 157.72551152149578 172.857667045178 C 0.0 **** -0.24
13612 H 11.67130146676817 157.1936628532116 173.55447641331148 H 0.0 **** 0.06
13613 H 10.145385149146904 158.09510602463297 173.3868359871302 H 0.0 **** 0.06
13614 H 10.71104755180977 157.0473722938786 172.0632708036337 H 0.0 **** 0.06
13615 H 11.568105641499415 158.56493758159667 172.42484199496386 H 0.0 **** 0.06
13616 C 184.4019324618075 17.757868552784558 135.96730520399575 C 0.0 **** -0.24
13617 H 183.58615864276314 17.17088171045542 135.54613819647506 H 0.0 **** 0.06
13618 H 185.35461197459628 17.292286100220082 135.71357331138137 H 0.0 **** 0.06
13619 H 184.29626586184997 17.802198577604784 137.05160339526856 H 0.0 **** 0.06
13620 H 184.3703327281515 18.768308126774357 135.55773654253989 H 0.0 **** 0.06
13621 C 55.67758376073715 86.50832752690803 2.166309162364769 C 0.0 **** -0.24
13622 H 56.519291066475034 86.36269848521454 1.4894737872805308 H 0.0 **** 0.06
13623 H 54.86209758176943 85.8433574222338 1.88140533113301 H 0.0 **** 0.06
13624 H 55.34026629479587 87.54316570790229 2.1094233142871417 H 0.0 **** 0.06
13625 H 55.98963458201331 86.28474247782293 3.186565576503483 H 0.0 **** 0.06
13626 C 115.33546021582988 115.16568493090544 215.36057396104408 C 0.0 **** -0.24
13627 H 115.17524768519426 114.1112934524579 215.13524599292762 H 0.0 **** 0.06
13628 H 116.34101048463175 115.45416504528377 215.0531686425253 H 0.0 **** 0.06
13629 H 115.22137749304899 115.3294248832406 216.43217719825148 H 0.0 **** 0.06
13630 H 114.60424079170026 115.76686219257881 214.82069880759832 H 0.0 **** 0.06
13631 C 67.05719428682755 89.12205270047342 101.96238663924005 C 0.0 **** -0.24
13632 H 68.10386645424542 88.81665900022888 101.97123036061022 H 0.0 **** 0.06
13633 H 66.4671856963813 88.41359370541404 102.5446012623476 H 0.0 **** 0.06
13634 H 66.69312563038136 89.14211807766146 100.93517802812231 H 0.0 **** 0.06
13635 H 66.96682678070157 90.11646048584926 102.39934545220918 H 0.0 **** 0.06
13636 C 66.46706221020119 180.09140568402074 0.5841772153731384 C 0.0 **** -0.24
13637 H 67.15314384593226 179.6982591381496 -0.16621862930612963 H 0.0 **** 0.06
13638 H 65.70578040893263 180.70030749866504 0.09597567383820405 H 0.0 **** 0.06
13639 H 67.01993414748226 180.7030516853899 1.2975746761227427 H 0.0 **** 0.06
13640 H 65.9897459519341 179.2637188919848 1.1084871383852075 H 0.0 **** 0.06
13641 C 172.7779694059319 48.29368442088523 13.438304928073478 C 0.0 **** -0.24
13642 H 173.20256870012915 47.47175299912496 14.014096819221322 H 0.0 **** 0.06
13643 H 172.07845389136966 48.850323333256654 14.06176647371555 H 0.0 **** 0.06
13644 H 172.25310831642804 47.89542133767745 12.570237832749342 H 0.0 **** 0.06
13645 H 173.57720673623314 48.956059268136244 13.10767920804264 H 0.0 **** 0.06
13646 C 94.89592877346469 119.25558316400027 196.1774304088331 C 0.0 **** -0.24
13647 H 95.64787263178694 119.47630995783014 196.93528082905326 H 0.0 **** 0.06
13648 H 94.7895677162325 120.11193272622596 195.51142898902918 H 0.0 **** 0.06
13649 H 93.94071515518 119.05125830557618 196.66250406885808 H 0.0 **** 0.06
13650 H 95.20534567416023 118.38337034097943 195.60213996168747 H 0.0 **** 0.06
13651 C 177.27754973711254 130.25988485326616 167.04505132664949 C 0.0 **** -0.24
13652 H 178.09431072946154 129.66960805323885 166.6298936293391 H 0.0 **** 0.06
13653 H 176.33188519377646 129.74831791868502 166.86331526813336 H 0.0 **** 0.06
13654 H 177.25862002620528 131.23959503783976 166.56892977046311 H 0.0 **** 0.06
13655 H 177.42523523396514 130.37971697593468 168.11889228947447 H 0.0 **** 0.06
13656 C 143.04490068353175 214.80882149844638 195.99552415031062 C 0.0 **** -0.24
13657 H 143.81994974891734 214.24424307048372 196.51591949826428 H 0.0 **** 0.06
13658 H 142.15186628904416 214.85843811534372 196.6183145595209 H 0.0 **** 0.06
13659 H 142.8048336064665 214.3117978277514 195.0549762109937 H 0.0 **** 0.06
13660 H 143.40495756203364 215.81657458847113 195.7926230384598 H 0.0 **** 0.06
13661 C 92.59922133857275 131.23292754382072 65.26066972692934 C 0.0 **** -0.24
13662 H 92.63597693217831 130.72354552252705 66.22364694375347 H 0.0 **** 0.06
13663 H 91.57604014594197 131.55066512388538 65.05650989186151 H 0.0 **** 0.06
13664 H 92.93127812648409 130.55292068014597 64.47658167012969 H 0.0 **** 0.06
13665 H 93.25188152069843 132.1046085836847 65.28622280887734 H 0.0 **** 0.06
13666 C 50.90648541267659 142.92341886645272 142.57448681408965 C 0.0 **** -0.24
13667 H 50.93444458856325 143.95150492907794 142.93433185603374 H 0.0 **** 0.06
13668 H 50.42055868437669 142.89369285829696 141.59798399403246 H 0.0 **** 0.06
13669 H 50.34709929167995 142.3072136092029 143.2786852181368 H 0.0 **** 0.06
13670 H 51.92319091097845 142.5417818048694 142.48580082675488 H 0.0 **** 0.06
13671 C 147.40354271439446 145.79714812052777 109.13944909091067 C 0.0 **** -0.24
13672 H 148.27516520879527 145.75489906915396 109.79290634934567 H 0.0 **** 0.06
13673 H 146.9518271697429 144.80725012581416 109.0735312130338 H 0.0 **** 0.06
13674 H 147.71009641047436 146.12361460255835 108.14621518760431 H 0.0 **** 0.06
13675 H 146.67828648490075 146.50136078094516 109.54669110901925 H 0.0 **** 0.06
13676 C 173.65255645062626 64.3244709804747 2.2412928586518888 C 0.0 **** -0.24
13677 H 173.97122483276962 63.281587680963014 2.2524302921917183 H 0.0 **** 0.06
13678 H 174.0857644591594 64.84531677345231 3.095347670880699 H 0.0 **** 0.06
13679 H 172.56615029551688 64.373140660805 2.298520719554233 H 0.0 **** 0.06
13680 H 173.98975613279208 64.79656374412178 1.3183768615530767 H 0.0 **** 0.06
13681 C 72.87471124634078 19.789693921097225 135.02957617177202 C 0.0 **** -0.24
13682 H 73.77602184631246 19.717630716043388 135.6378427449286 H 0.0 **** 0.06
13683 H 72.94660750048058 19.099230675469684 134.19008969358703 H 0.0 **** 0.06
13684 H 72.77005102408344 20.808512406317618 134.6553191956906 H 0.0 **** 0.06
13685 H 72.005358205103 19.535212581456108 135.63707078018848 H 0.0 **** 0.06
13686 C 103.96531117787477 121.41756545193356 103.42051337908192 C 0.0 **** -0.24
13687 H 104.20910903073671 121.82764243342838 104.40091667595551 H 0.0 **** 0.06
13688 H 103.9728454407515 120.32840948788915 103.47044002050741 H 0.0 **** 0.06
13689 H 104.70422119056455 121.75402753065752 102.6931823670054 H 0.0 **** 0.06
13690 H 102.97607881740713 121.76143904324188 103.11869816440863 H 0.0 **** 0.06
13691 C 86.31455435094925 84.36434293473279 91.35545489355239 C 0.0 **** -0.24
13692 H 85.2508355650077 84.3738952905134 91.11568781884397 H 0.0 **** 0.06
13693 H 86.83280884719942 83.68416680858674 90.67898326538325 H 0.0 **** 0.06
13694 H 86.45160193847703 84.03040400817302 92.38370577742121 H 0.0 **** 0.06
13695 H 86.72086986704407 85.36865592667063 91.2427196985452 H 0.0 **** 0.06
13696 C 212.48296003831626 29.13505789915868 154.1486113778157 C 0.0 **** -0.24
13697 H 211.60668166158158 28.89732892725219 153.5450400988567 H 0.0 **** 0.06
13698 H 213.23065648812218 29.626652195191696 153.52493900349577 H 0.0 **** 0.06
13699 H 212.8997888991401 28.216203954293064 154.5601332525194 H 0.0 **** 0.06
13700 H 212.19318219801005 29.800277083932897 154.96140000923748 H 0.0 **** 0.06
13701 C 105.26904759125777 169.4741639063412 141.92958777547034 C 0.0 **** -0.24
13702 H 105.53832600872185 168.62243936226272 142.5554588468292 H 0.0 **** 0.06
13703 H 104.28098397432014 169.3095819043818 141.4996829122651 H 0.0 **** 0.06
13704 H 106.00110669974491 169.58269351800092 141.12946596097322 H 0.0 **** 0.06
13705 H 105.25559873883945 170.37921435063691 142.53587313532609 H 0.0 **** 0.06
13706 C 166.66232728424077 111.0302537446053 5.205297783420633 C 0.0 **** -0.24
13707 H 166.26207712229152 111.95867701579259 5.612119816720821 H 0.0 **** 0.06
13708 H 166.47669734989833 110.21692727920966 5.907044696479545 H 0.0 **** 0.06
13709 H 167.73660507709036 111.13677177911337 5.048013634187896 H 0.0 **** 0.06
13710 H 166.1763295836571 110.80980736429196 4.255708536373959 H 0.0 **** 0.06
13711 C 65.84219343656952 65.76017973589836 111.45861711523897 C 0.0 **** -0.24
13712 H 66.00748445591651 66.8344155420919 111.38350767069385 H 0.0 **** 0.06
13713 H 64.92318012860042 65.57222123568187 112.01399742009026 H 0.0 **** 0.06
13714 H 66.68163220456256 65.29868322903633 111.97759750651768 H 0.0 **** 0.06
13715 H 65.75570724834182 65.33599779038934 110.45834167786431 H 0.0 **** 0.06
13716 C 160.24307843772283 11.440220493031603 33.473975769426204 C 0.0 **** -0.24
13717 H 159.22061380004857 11.587405380461291 33.12650086995208 H 0.0 **** 0.06
13718 H 160.37509095183896 10.405041095769946 33.78796054599627 H 0.0 **** 0.06
13719 H 160.44012724544802 12.104252697046775 34.31598417019069 H 0.0 **** 0.06
13720 H 160.93756108899294 11.665984268352531 32.66331508750011 H 0.0 **** 0.06
13721 C 201.70780283695302 181.91713587230032 133.45265249683126 C 0.0 **** -0.24
13722 H 200.93800694546837 182.40593054515836 134.04957391974318 H 0.0 **** 0.06
13723 H 202.68359952166173 182.08664031335366 133.90988137045264 H 0.0 **** 0.06
13724 H 201.70263228695208 182.32960775993075 132.44342241691766 H 0.0 **** 0.06
13725 H 201.50903633494642 180.84584624676643 133.40841936542495 H 0.0 **** 0.06
13726 C 153.40034104941583 120.91167305492745 96.15141533813672 C 0.0 **** -0.24
13727 H 154.08738674074505 120.9352349935197 95.30488937384386 H 0.0 **** 0.06
13728 H 153.9435923038822 121.14897713453679 97.06645577204559 H 0.0 **** 0.06
13729 H 152.96286635310912 119.91782470772289 96.2354359123757 H 0.0 **** 0.06
13730 H 152.60882316181954 121.64581021520665 95.99715834583016 H 0.0 **** 0.06
13731 C 173.28872836808426 99.42836897141781 80.75275827278632 C 0.0 **** -0.24
13732 H 172.55435303824163 98.6226919608019 80.72251613215049 H 0.0 **** 0.06
13733 H 173.38859886496593 99.78978502576366 81.77612059971086 H 0.0 **** 0.06
13734 H 172.95832355725557 100.24446905801311 80.10964128662592 H 0.0 **** 0.06
13735 H 174.2509512731779 99.05549414604407 80.40359704859891 H 0.0 **** 0.06
13736 C 208.7676403347054 151.73675806712248 3.1026989946490744 C 0.0 **** -0.24
13737 H 208.96212541004363 152.7752702166456 2.8361240606836304 H 0.0 **** 0.06
13738 H 207.69547101113875 151.5441220870768 3.055312593734584 H 0.0 **** 0.06
13739 H 209.12680477309536 151.54826065335283 4.1154160341807255 H 0.0 **** 0.06
13740 H 209.28658526658202 151.07910275993123 2.405599442579785 H 0.0 **** 0.06
13741 C 12.111206025183378 37.925032201835165 158.11989264347454 C 0.0 **** -0.24
13742 H 13.158795322403819 38.00760367268464 157.83053516337316 H 0.0 **** 0.06
13743 H 12.047377985555698 37.582495805320036 159.15331460787144 H 0.0 **** 0.06
13744 H 11.610018198357238 37.209822618372755 157.46816866838645 H 0.0 **** 0.06
13745 H 11.631529371183376 38.89888811645744 158.02891968546555 H 0.0 **** 0.06
13746 C 150.435068242942 71.44829014406416 137.55317952581078 C 0.0 **** -0.24
13747 H 149.78116150834 72.1523809786424 137.03849203022185 H 0.0 **** 0.06
13748 H 149.84594101575874 70.60466003380738 137.9161196375278 H 0.0 **** 0.06
13749 H 150.91477713232172 71.94697487602771 138.39513739257 H 0.0 **** 0.06
13750 H 151.19637480433755 71.08756334139561 136.8614117666288 H 0.0 **** 0.06
13751 C 179.95014976413023 105.20623839300818 128.88352014781327 C 0.0 **** -0.24
13752 H 178.94749516148565 104.99668509683941 128.51233652487292 H 0.0 **** 0.06
13753 H 180.6669670613558 105.11279377214926 128.06668771075903 H 0.0 **** 0.06
13754 H 180.20172746374385 104.4966585462132 129.6716529006692 H 0.0 **** 0.06
13755 H 179.98470057202803 106.21971682889235 129.28308095204108 H 0.0 **** 0.06
13756 C 182.49500199879645 0.7387235762177511 161.52068521622184 C 0.0 **** -0.24
13757 H 182.46325316461878 0.5525800634984819 162.59424180168668 H 0.0 **** 0.06
13758 H 181.91228929487744 1.631297457162816 161.28940414037484 H 0.0 **** 0.06
13759 H 182.07487359680061 -0.11634082321609185 160.99031633571136 H 0.0 **** 0.06
13760 H 183.5276667174772 0.8887853270660457 161.20827337345867 H 0.0 **** 0.06
13761 C 60.74964352408702 176.95127902282047 55.10801212073876 C 0.0 **** -0.24
13762 H 61.807104678700284 177.17920164423015 54.972762987871405 H 0.0 **** 0.06
13763 H 60.24032552070011 177.8238912445438 55.51882259327151 H 0.0 **** 0.06
13764 H 60.6442569385257 176.1117019914435 55.795638636293646 H 0.0 **** 0.06
13765 H 60.30778389441144 176.69136500861364 54.14658667218302 H 0.0 **** 0.06
13766 C 91.5055872686428 100.85527596497762 11.465408507860417 C 0.0 **** -0.24
13767 H 91.92036164851207 100.54697809514916 12.425083334675918 H 0.0 **** 0.06
13768 H 91.30625112969322 99.9740653305388 10.856163034332496 H 0.0 **** 0.06
13769 H 92.21882884339352 101.50025938248221 10.952315941362471 H 0.0 **** 0.06
13770 H 90.57670284062333 101.40096850634275 11.630827684800138 H 0.0 **** 0.06
13771 C 49.64396489962044 88.75386528782121 170.10070201698542 C 0.0 **** -0.24
13772 H 50.53513391394273 89.09103074911972 169.57154478860997 H 0.0 **** 0.06
13773 H 49.937913486960184 88.13328054700418 170.94675457512722 H 0.0 **** 0.06
13774 H 49.01756545084723 88.17417797459126 169.42293252760217 H 0.0 **** 0.06
13775 H 49.086768985273636 89.61949434242494 170.46042720075448 H 0.0 **** 0.06
13776 C 35.47208489987973 19.73081220359836 3.29731618007321 C 0.0 **** -0.24
13777 H 34.88897015650625 20.1154706122893 2.460911832821523 H 0.0 **** 0.06
13778 H 34.86955433963095 19.762043457676896 4.20556652196251 H 0.0 **** 0.06
13779 H 36.36321864013813 20.342966546795026 3.43128942995088 H 0.0 **** 0.06
13780 H 35.766591344716616 18.7013933884337 3.092550465013801 H 0.0 **** 0.06
13781 C 209.79214227767199 134.7126889437494 87.92893897388211 C 0.0 **** -0.24
13782 H 208.92337406268518 134.05534379464234 87.9434048902836 H 0.0 **** 0.06
13783 H 210.21726355672263 134.73136139079935 86.925295920243 H 0.0 **** 0.06
13784 H 210.5388430242414 134.34357301344255 88.63332565274857 H 0.0 **** 0.06
13785 H 209.4900727728852 135.7206318353032 88.21473311547055 H 0.0 **** 0.06
13786 C 175.2026846060003 112.55408525740988 69.22745605260073 C 0.0 **** -0.24
13787 H 174.13821215225076 112.77847657554638 69.15413429232225 H 0.0 **** 0.06
13788 H 175.43657556498871 112.23549104093131 70.24388603155501 H 0.0 **** 0.06
13789 H 175.77914900787732 113.44623534698233 68.98339429252036 H 0.0 **** 0.06
13790 H 175.4543634098701 111.75637192523367 68.52842217646224 H 0.0 **** 0.06
13791 C 70.84604029133686 187.5398551091462 7.595367663631137 C 0.0 **** -0.24
13792 H 70.39278301258304 187.5777861930697 8.585725781587044 H 0.0 **** 0.06
13793 H 70.41953192865412 188.32424188407745 6.969873342446064 H 0.0 **** 0.06
13794 H 70.65098182887874 186.5674360400853 7.143435718096072 H 0.0 **** 0.06
13795 H 71.92267220184783 187.68944033425197 7.683646464846802 H 0.0 **** 0.06
13796 C 113.30932532840741 151.852841908906 19.93342641506254 C 0.0 **** -0.24
13797 H 112.93824144360663 151.16633655986607 19.17205114443901 H 0.0 **** 0.06
13798 H 113.89759130835425 151.2990969547481 20.66566395310477 H 0.0 **** 0.06
13799 H 112.46698265595272 152.33235456415258 20.431404889824663 H 0.0 **** 0.06
13800 H 113.93560978740153 152.6119954679478 19.463477685053178 H 0.0 **** 0.06
13801 C 177.47532359220537 202.98954998875453 201.8908881869583 C 0.0 **** -0.24
13802 H 176.40363840638554 203.159309956857 201.9939587929533 H 0.0 **** 0.06
13803 H 177.66747920265294 202.42961594548655 200.97577769013026 H 0.0 **** 0.06
13804 H 177.83670366006652 202.4207337982092 202.74774916104937 H 0.0 **** 0.06
13805 H 177.99247476832377 203.94853472077574 201.84600947768448 H 0.0 **** 0.06
13806 C 145.13273785516668 198.7926742308445 87.23084492554938 C 0.0 **** -0.24
13807 H 145.2770730465416 197.71421675157345 87.29761287429301 H 0.0 **** 0.06
13808 H 144.94325900858064 199.19581130854985 88.22657653118176 H 0.0 **** 0.06
13809 H 144.2823542971608 199.0050807282479 86.58441133451339 H 0.0 **** 0.06
13810 H 146.02918011677343 199.25417869213808 86.81726418046628 H 0.0 **** 0.06
13811 C 169.5399821197775 121.01496983492954 8.636171409196677 C 0.0 **** -0.24
13812 H 170.16760905182412 121.60011963695045 9.308374712686728 H 0.0 **** 0.06
13813 H 169.53643727586172 121.47617847423088 7.648961123418175 H 0.0 **** 0.06
13814 H 168.5223697395212 120.98219441577923 9.02631492675097 H 0.0 **** 0.06
13815 H 169.93375078158851 120.00121274259637 8.562741604817063 H 0.0 **** 0.06
13816 C 216.8387797215229 95.1904009927827 154.61262567481072 C 0.0 **** -0.24
13817 H 216.84383246530905 94.14005523757159 154.90865852458847 H 0.0 **** 0.06
13818 H 215.9718630370728 95.38417469172485 153.98112480480808 H 0.0 **** 0.06
13819 H 217.75100067005803 95.4148254306421 154.05875586208344 H 0.0 **** 0.06
13820 H 216.7887837921044 95.81717594937466 155.50203146996392 H 0.0 **** 0.06
13821 C 166.84633450786464 186.9135236079547 13.837419437145115 C 0.0 **** -0.24
13822 H 167.75309628998787 186.39928908213307 13.518076254025232 H 0.0 **** 0.06
13823 H 167.10186585130378 187.90925779220026 14.199102025805985 H 0.0 **** 0.06
13824 H 166.36999803927893 186.34610497549198 14.636770296366791 H 0.0 **** 0.06
13825 H 166.16118798020676 186.99773265541492 12.993195398305772 H 0.0 **** 0.06
13826 C 82.57013616372859 211.06847719881824 203.12762247583652 C 0.0 **** -0.24
13827 H 82.49765173883088 211.80368026487173 202.32660962665582 H 0.0 **** 0.06
13828 H 83.5892763500679 211.0557357220942 203.51712101622212 H 0.0 **** 0.06
13829 H 82.31646235349757 210.0814682701648 202.74017942365072 H 0.0 **** 0.06
13830 H 81.8789756553104 211.33351336753708 203.927781284578 H 0.0 **** 0.06
13831 C 4.907472695920717 14.679683207736502 27.15345147386911 C 0.0 **** -0.24
13832 H 4.134929934492952 15.260439341621236 26.65032513118959 H 0.0 **** 0.06
13833 H 4.51978101420238 14.301542260579751 28.099725605032333 H 0.0 **** 0.06
13834 H 5.77249732258214 15.314955818510526 27.343862192595623 H 0.0 **** 0.06
13835 H 5.203118484011895 13.842857992376409 26.521189461470513 H 0.0 **** 0.06
13836 C 27.10531964836335 95.48666303406402 210.93916734755868 C 0.0 **** -0.24
13837 H 27.133208462412142 94.42198147809474 210.70832210326378 H 0.0 **** 0.06
13838 H 27.123118651970373 96.06031451248849 210.01173199260774 H 0.0 **** 0.06
13839 H 27.97129673627967 95.74959046626519 211.5468506442284 H 0.0 **** 0.06
13840 H 26.19235554991633 95.71457722383867 211.49029059335464 H 0.0 **** 0.06
13841 C 200.71242549811316 186.01399079979907 14.540671651235812 C 0.0 **** -0.24
13842 H 200.50699936927825 185.60086890169396 15.527880103642048 H 0.0 **** 0.06
13843 H 201.76547992112046 186.28904210685457 14.473632008109647 H 0.0 **** 0.06
13844 H 200.09491682806188 186.8980504478094 14.380844484374137 H 0.0 **** 0.06
13845 H 200.48265957471835 185.26858092342567 13.779595527645142 H 0.0 **** 0.06
13846 C 49.13753430960301 172.2473938745522 53.41678602876169 C 0.0 **** -0.24
13847 H 49.21292484379069 172.91888677050858 54.27178292131947 H 0.0 **** 0.06
13848 H 49.43902188664083 172.77610674058042 52.5126986005634 H 0.0 **** 0.06
13849 H 48.10676584557238 171.90761244892767 53.31248308017871 H 0.0 **** 0.06
13850 H 49.79017869794693 171.38870304543957 53.57138060701885 H 0.0 **** 0.06
13851 C 1.0046223009615574 117.54692567575636 38.539065919396535 C 0.0 **** -0.24
13852 H 1.2124878301194997 116.67407345110921 37.91982278474589 H 0.0 **** 0.06
13853 H 1.6097843816726538 117.50178902873368 39.4440491576006 H 0.0 **** 0.06
13854 H -0.051208812983787766 117.55884864650763 38.8072591650448 H 0.0 **** 0.06
13855 H 1.2492624437213635 118.45270127598631 37.98277828975347 H 0.0 **** 0.06
13856 C 69.33234810748964 46.549428949421966 66.70923059616052 C 0.0 **** -0.24
13857 H 70.38439590302865 46.29574875378876 66.58334607643226 H 0.0 **** 0.06
13858 H 69.22668270877428 47.631259261420425 66.78938128902519 H 0.0 **** 0.06
13859 H 68.95145992869115 46.07827321306512 67.61562488822253 H 0.0 **** 0.06
13860 H 68.76683929704498 46.19103817321606 65.84834675097493 H 0.0 **** 0.06
13861 C 19.66821494978396 4.394688480117161 199.10212543166696 C 0.0 **** -0.24
13862 H 18.584656615057867 4.352864411270616 198.9894656491823 H 0.0 **** 0.06
13863 H 20.104195310020373 3.4501408150601236 198.77391055950716 H 0.0 **** 0.06
13864 H 19.918058405804658 4.565616892983613 200.14948968082945 H 0.0 **** 0.06
13865 H 20.06545408754107 5.209252016481919 198.4966260950841 H 0.0 **** 0.06
13866 C 128.0038754526933 110.05826774376 135.72516100554253 C 0.0 **** -0.24
13867 H 127.86227129780036 110.47878009725694 134.72940211610967 H 0.0 **** 0.06
13868 H 128.49643757984688 110.79182360834703 136.36281253094018 H 0.0 **** 0.06
13869 H 128.62107964053928 109.16193859342054 135.65696132373552 H 0.0 **** 0.06
13870 H 127.03388295444984 109.79972501113077 136.1504660185496 H 0.0 **** 0.06
13871 C 25.909435556672918 127.60041887512205 177.4354658820692 C 0.0 **** -0.24
13872 H 26.4900188644406 126.80492784184628 176.96854600468106 H 0.0 **** 0.06
13873 H 24.897911220398782 127.24340866590495 177.63140306589827 H 0.0 **** 0.06
13874 H 25.868486555386568 128.4606171786312 176.76683803011997 H 0.0 **** 0.06
13875 H 26.381013538635102 127.8907250552146 178.37411952380643 H 0.0 **** 0.06
13876 C 196.05307971577744 110.85681684463539 187.38932145368184 C 0.0 **** -0.24
13877 H 195.03944406683726 111.21194446001668 187.20342555507037 H 0.0 **** 0.06
13878 H 196.58787348442945 110.77204657221942 186.44269175688842 H 0.0 **** 0.06
13879 H 196.01154136451754 109.87997804214395 187.8723552781912 H 0.0 **** 0.06
13880 H 196.57207693130405 111.56154225895686 188.0388736949631 H 0.0 **** 0.06
13881 C 49.76985744744893 3.3440229820024854 87.30494548062234 C 0.0 **** -0.24
13882 H 48.85977952755354 3.8173364580705993 87.67216565036864 H 0.0 **** 0.06
13883 H 50.59411744379588 3.5682144079229943 87.98273587297047 H 0.0 **** 0.06
13884 H 50.00224718034244 3.726676814339328 86.31099367201995 H 0.0 **** 0.06
13885 H 49.62302450340586 2.2651225385722284 87.25447710547553 H 0.0 **** 0.06
13886 C 44.84443379901036 46.232477654193374 98.98684798298034 C 0.0 **** -0.24
13887 H 44.188764947151185 47.078234290055875 98.77992721337189 H 0.0 **** 0.06
13888 H 44.645631730589855 45.43445046310117 98.27115497286529 H 0.0 **** 0.06
13889 H 44.65968942013255 45.868305503919544 99.99759636934236 H 0.0 **** 0.06
13890 H 45.88363620850791 46.54900630194531 98.89970960158503 H 0.0 **** 0.06
13891 C 160.01653205233382 15.569485359787791 146.05364943395455 C 0.0 **** -0.24
13892 H 159.89903456595798 15.017321401598792 146.98600046139705 H 0.0 **** 0.06
13893 H 159.25665471128056 16.347615537251002 145.9938082887806 H 0.0 **** 0.06
13894 H 159.9060126034763 14.88671976895239 145.21142693982978 H 0.0 **** 0.06
13895 H 161.00701896584968 16.024911628315067 146.02398892123318 H 0.0 **** 0.06
13896 C 206.26633218723816 130.59991921901013 131.77760783233356 C 0.0 **** -0.24
13897 H 205.37501949237463 130.05752389173796 132.09279527404755 H 0.0 **** 0.06
13898 H 206.92661222612338 129.92645162543732 131.2320074362927 H 0.0 **** 0.06
13899 H 206.78521233775473 130.98625377041805 132.65622730654292 H 0.0 **** 0.06
13900 H 205.97766315984362 131.4296947377058 131.13275753121587 H 0.0 **** 0.06
13901 C 114.85619674938489 119.70615185432466 60.03487546991187 C 0.0 **** -0.24
13902 H 114.77078406566982 120.48306769389144 59.27542265314929 H 0.0 **** 0.06
13903 H 115.90009251366071 119.60105663217915 60.33049306940285 H 0.0 **** 0.06
13904 H 114.4966379375498 118.76077724713248 59.62813666490882 H 0.0 **** 0.06
13905 H 114.25719678128736 119.97956852555872 60.90345563135378 H 0.0 **** 0.06
13906 C 190.14688434824373 56.859862618908096 71.11886491000178 C 0.0 **** -0.24
13907 H 189.19208674859144 57.04770104749633 71.61096288978678 H 0.0 **** 0.06
13908 H 190.67630585488203 57.80234648722893 70.9812743848421 H 0.0 **** 0.06
13909 H 189.96879985117533 56.3970547316184 70.1473444850638 H 0.0 **** 0.06
13910 H 190.747612566624 56.189974637750055 71.73492891228676 H 0.0 **** 0.06
13911 C 130.45415474603544 55.81416749926814 19.283270180428616 C 0.0 **** -0.24
13912 H 129.9356702516481 56.26424430275853 20.130098878382412 H 0.0 **** 0.06
13913 H 129.76253007728332 55.182606410737634 18.72692224743365 H 0.0 **** 0.06
13914 H 131.28649294411196 55.210639900187104 19.64693584814586 H 0.0 **** 0.06
13915 H 130.834108541867 56.60019847161442 18.63091172470024 H 0.0 **** 0.06
13916 C 127.79030757374768 104.35309282280643 7.396242146442617 C 0.0 **** -0.24
13917 H 128.7234116043398 104.91539788069345 7.397975868535511 H 0.0 **** 0.06
13918 H 127.5936373359916 103.97811041218903 6.391227635586645 H 0.0 **** 0.06
13919 H 126.97334659271236 105.00291145678032 7.70803472935016 H 0.0 **** 0.06
13920 H 127.87051956700533 103.51380145972463 8.087203204327508 H 0.0 **** 0.06
13921 C 40.556632376123446 111.88295319499338 11.808149317688489 C 0.0 **** -0.24
13922 H 41.13713455810057 110.9657779309166 11.908925765963872 H 0.0 **** 0.06
13923 H 40.07539589264525 111.90194649655274 10.82958053492726 H 0.0 **** 0.06
13924 H 41.21762395726006 112.74397807579544 11.905264786243492 H 0.0 **** 0.06
13925 H 39.79658740546563 111.91790398046834 12.588530774509124 H 0.0 **** 0.06
13926 C 111.73239369586337 30.037103327262457 11.877556768864025 C 0.0 **** -0.24
13927 H 112.66346536591801 30.156689790306288 11.32293007308975 H 0.0 **** 0.06
13928 H 111.77879581530895 29.12406369590299 12.471590960789754 H 0.0 **** 0.06
13929 H 110.89929473430827 29.974852673010318 11.178552415219443 H 0.0 **** 0.06
13930 H 111.59089195220629 30.893484478562826 12.537689130793922 H 0.0 **** 0.06
13931 C 206.0475077507307 214.47532407017457 33.326752279617125 C 0.0 **** -0.24
13932 H 205.24520703643822 214.4810006250444 34.06476073610844 H 0.0 **** 0.06
13933 H 206.1046901163149 215.45117421427665 32.843896379618585 H 0.0 **** 0.06
13934 H 205.8464681442701 213.7097001978014 32.57760256521047 H 0.0 **** 0.06
13935 H 206.99440723539863 214.2589821976757 33.82125677336465 H 0.0 **** 0.06
13936 C 193.1815727282056 64.71612300201285 197.78275033003035 C 0.0 **** -0.24
13937 H 192.66413118533427 63.76356378608175 197.8978777856435 H 0.0 **** 0.06
13938 H 192.46814449541836 65.5322020367311 197.89356227824987 H 0.0 **** 0.06
13939 H 193.638599879755 64.76309928221644 196.79441812638925 H 0.0 **** 0.06
13940 H 193.95492261892446 64.80285316448958 198.54489069380676 H 0.0 **** 0.06
13941 C 5.015315684979548 161.3808832367718 35.30615633900254 C 0.0 **** -0.24
13942 H 5.167371106416354 160.72520429531986 34.448779868787824 H 0.0 **** 0.06
13943 H 4.190016114854323 161.00211132542765 35.911012218510564 H 0.0 **** 0.06
13944 H 4.778923527097589 162.38534498015468 34.95725310849548 H 0.0 **** 0.06
13945 H 5.9235176278034345 161.4089020694243 35.90733376252538 H 0.0 **** 0.06
13946 C 41.9448616784977 184.27261221508587 155.48422140399094 C 0.0 **** -0.24
13947 H 42.475045364627206 184.47739409698943 154.55478676092423 H 0.0 **** 0.06
13948 H 41.15574023920702 183.5442816272167 155.299215907674 H 0.0 **** 0.06
13949 H 41.5068057278195 185.1961981985047 155.8628109630123 H 0.0 **** 0.06
13950 H 42.64263819192284 183.87319718495738 156.22007784678647 H 0.0 **** 0.06
13951 C 88.5207059413461 134.99042885667382 74.79983758999016 C 0.0 **** -0.24
13952 H 87.50182528919318 134.89711558225696 74.42309763025683 H 0.0 **** 0.06
13953 H 88.74544890849076 134.1468716417291 75.45390027115697 H 0.0 **** 0.06
13954 H 88.61705014209396 135.92066295343767 75.3589587236845 H 0.0 **** 0.06
13955 H 89.21852629966709 134.99624695406328 73.96186739231088 H 0.0 **** 0.06
13956 C 69.22262861337981 135.12220843262202 52.870089893881755 C 0.0 **** -0.24
13957 H 70.22283772185966 134.71698260757836 53.022428011656956 H 0.0 **** 0.06
13958 H 69.14825363737157 136.097145608326 53.35137151168931 H 0.0 **** 0.06
13959 H 68.48714290687411 134.44469652579517 53.30378624788432 H 0.0 **** 0.06
13960 H 69.03372912273579 135.2275186367857 51.801937810352456 H 0.0 **** 0.06
13961 C 163.13407375699214 2.649726083157205 43.85642180490504 C 0.0 **** -0.24
13962 H 163.54466679359098 1.9012251995438518 44.53367870761355 H 0.0 **** 0.06
13963 H 162.06727051921027 2.765952438915157 44.049184439948704 H 0.0 **** 0.06
13964 H 163.28413373099082 2.3289469873978206 42.825644957346015 H 0.0 **** 0.06
13965 H 163.6391491207029 3.601883476350828 44.019189473196946 H 0.0 **** 0.06
13966 C 215.52996965310558 39.37948714807686 39.243434017239 C 0.0 **** -0.24
13967 H 215.153856169381 38.6560338478871 39.96669268733376 H 0.0 **** 0.06
13968 H 215.2472851501118 40.38477972811552 39.554693435000445 H 0.0 **** 0.06
13969 H 215.10326449815574 39.168137442046685 38.263571716517006 H 0.0 **** 0.06
13970 H 216.61656977336216 39.30735016248212 39.19022141204424 H 0.0 **** 0.06
13971 C 16.512005197507108 63.95569619318485 212.58326286310302 C 0.0 **** -0.24
13972 H 17.515982281763456 64.29812350955285 212.83273364916982 H 0.0 **** 0.06
13973 H 15.813051054345834 64.2881543749362 213.3510941002562 H 0.0 **** 0.06
13974 H 16.50230221797962 62.86711386203888 212.52758971961458 H 0.0 **** 0.06
13975 H 16.216428394910835 64.37083551076034 211.61901607895152 H 0.0 **** 0.06
13976 C 37.83293392085139 175.08631612876735 113.64815675787277 C 0.0 **** -0.24
13977 H 38.0659158945011 175.69732281402065 114.52027106731138 H 0.0 **** 0.06
13978 H 38.75366965066286 174.84366503352592 113.11766425302248 H 0.0 **** 0.06
13979 H 37.16567740473671 175.63808658806096 112.9859609862044 H 0.0 **** 0.06
13980 H 37.3461181480242 174.16506131643382 113.97034324811814 H 0.0 **** 0.06
13981 C 172.72497550701877 104.245535004548 203.06512240988098 C 0.0 **** -0.24
13982 H 173.11387915042098 103.24229907578416 203.2445459168995 H 0.0 **** 0.06
13983 H 172.56091708566444 104.3848469169539 201.99700671075936 H 0.0 **** 0.06
13984 H 173.44396463525192 104.98234377429247 203.42241024418507 H 0.0 **** 0.06
13985 H 171.78253684554483 104.36939495898588 203.5977331519008 H 0.0 **** 0.06
13986 C 32.15883953903018 113.54982472084676 159.78245321440704 C 0.0 **** -0.24
13987 H 32.66442297075538 112.95097563577981 159.02518556255973 H 0.0 **** 0.06
13988 H 31.4805274211991 114.2521705026898 159.29709538261665 H 0.0 **** 0.06
13989 H 32.898370490109926 114.10130066894969 160.36296452903287 H 0.0 **** 0.06
13990 H 31.590974645692697 112.89567160273974 160.44412103072347 H 0.0 **** 0.06
13991 C 99.08410431693802 2.175819957570951 69.81771283782348 C 0.0 **** -0.24
13992 H 99.47277593567084 1.3115348911373417 70.35667558303464 H 0.0 **** 0.06
13993 H 97.99412581523622 2.139228452384927 69.81270419338153 H 0.0 **** 0.06
13994 H 99.45343288094789 2.161627962464273 68.79265277956267 H 0.0 **** 0.06
13995 H 99.41449337872952 3.089791934847973 70.31088565013016 H 0.0 **** 0.06
13996 C 34.384373033856605 91.83762197410674 175.66385491235752 C 0.0 **** -0.24
13997 H 33.819369588348366 91.63007268152056 174.7551087790753 H 0.0 **** 0.06
13998 H 33.761882478439674 91.62683729120512 176.5341488187135 H 0.0 **** 0.06
13999 H 34.68193543285366 92.885580184505 175.67450027690944 H 0.0 **** 0.06
14000 H 35.27289892706622 91.2073060414189 175.69092313542146 H 0.0 **** 0.06
14001 C 133.49270660762426 142.77580993691532 161.41306888719862 C 0.0 **** -0.24
14002 H 134.4183741458193 142.76541682374034 160.83685560755646 H 0.0 **** 0.06
14003 H 132.6410573037664 142.79137574485765 160.73154314437878 H 0.0 **** 0.06
14004 H 133.46892821244307 143.66330156428882 162.04495125394988 H 0.0 **** 0.06
14005 H 133.44305861883464 141.88399146734855 162.03670420361513 H 0.0 **** 0.06
14006 C 101.00764997502831 0.8654746402623346 165.41518721116023 C 0.0 **** -0.24
14007 H 100.96568308522895 0.3045758480185441 166.34971890621634 H 0.0 **** 0.06
14008 H 101.438790959842 0.23826710785564842 164.63468076963463 H 0.0 **** 0.06
14009 H 101.62539017483347 1.7525603719205947 165.55205602633103 H 0.0 **** 0.06
14010 H 100.00074135659419 1.1646575349884358 165.12591269009775 H 0.0 **** 0.06
14011 C 131.37029344327863 68.30662064165907 67.00199280361826 C 0.0 **** -0.24
14012 H 132.40239403639595 68.20131936315718 66.66748249729392 H 0.0 **** 0.06
14013 H 130.89821608010362 67.32467604316675 67.0354279171454 H 0.0 **** 0.06
14014 H 130.8279687026295 68.94731534978565 66.30753597808157 H 0.0 **** 0.06
14015 H 131.35516399723576 68.75197649771623 67.9961207516007 H 0.0 **** 0.06
14016 C 214.8573664869404 116.13500134851978 95.72910508092258 C 0.0 **** -0.24
14017 H 215.23211078332542 116.31217422730117 96.73675462535579 H 0.0 **** 0.06
14018 H 213.79277273792707 116.36729260128078 95.69090728563049 H 0.0 **** 0.06
14019 H 215.01161537960564 115.089353236568 95.46255594144628 H 0.0 **** 0.06
14020 H 215.3933330067215 116.77222096456791 95.02531164796858 H 0.0 **** 0.06
14021 C 177.81371794110115 179.5741069978971 133.09367627676096 C 0.0 **** -0.24
14022 H 177.60516888428654 180.28491720807887 132.2933998926094 H 0.0 **** 0.06
14023 H 178.14542095885696 180.11410855364932 133.9804623631585 H 0.0 **** 0.06
14024 H 178.595165677943 178.88536106286534 132.77243709745858 H 0.0 **** 0.06
14025 H 176.90867540177226 179.012900048321 133.32574716073265 H 0.0 **** 0.06
14026 C 151.57885288287554 9.577405425653183 6.988535942192385 C 0.0 **** -0.24
14027 H 152.08213752386564 10.315471455630075 6.36420491019544 H 0.0 **** 0.06
14028 H 152.20911204159734 9.337141231502045 7.845185029250956 H 0.0 **** 0.06
14029 H 151.39664120932963 8.673764892949293 6.406796454285285 H 0.0 **** 0.06
14030 H 150.62920725916428 9.98284976487821 7.337972942912231 H 0.0 **** 0.06
14031 C 201.06724491890992 115.17301921285794 101.0997209742154 C 0.0 **** -0.24
14032 H 202.01981247665216 115.28939695539451 100.58114269150921 H 0.0 **** 0.06
14033 H 201.11798078655244 114.3069046382728 101.75914613529427 H 0.0 **** 0.06
14034 H 200.2717190209291 115.02956765322106 100.36902314354838 H 0.0 **** 0.06
14035 H 200.863151980228 116.06714317010447 101.68832742090042 H 0.0 **** 0.06
14036 C 59.534669229678116 130.91250948091704 41.64217064677257 C 0.0 **** -0.24
14037 H 58.9752190309776 130.66904052434126 42.544612586524465 H 0.0 **** 0.06
14038 H 60.60102112381534 130.9391082793764 41.87150733713486 H 0.0 **** 0.06
14039 H 59.21818944987456 131.88657876802313 41.26952643978092 H 0.0 **** 0.06
14040 H 59.34540051218869 130.15338595320475 40.88205290005567 H 0.0 **** 0.06
14041 C 4.837512415254999 169.86258669073973 155.05793397732157 C 0.0 **** -0.24
14042 H 5.377389378474824 169.64685980777597 154.13628659248866 H 0.0 **** 0.06
14043 H 5.5500900288938055 170.0655356509841 155.85816020866145 H 0.0 **** 0.06
14044 H 4.222181796782607 169.00448075369474 155.32784241140536 H 0.0 **** 0.06
14045 H 4.199623313153175 170.73465617694387 154.9093524686138 H 0.0 **** 0.06
14046 C 132.8399225662098 145.6929007713229 122.19094592331824 C 0.0 **** -0.24
14047 H 132.98885551082702 144.89819615499187 121.46020815854293 H 0.0 **** 0.06
14048 H 133.3015512365426 145.4083521167699 123.13636655296624 H 0.0 **** 0.06
14049 H 131.77177976632908 145.85261536585284 122.34083707589939 H 0.0 **** 0.06
14050 H 133.29737389051508 146.61247883625595 121.82496420608972 H 0.0 **** 0.06
14051 C 194.26322025899194 12.711133451002297 54.22935211405668 C 0.0 **** -0.24
14052 H 194.39028347628377 13.432524399776966 55.03674556220919 H 0.0 **** 0.06
14053 H 193.3907573138497 12.982260611751258 53.63459198218946 H 0.0 **** 0.06
14054 H 194.12236047470165 11.715663922327408 54.650166885237 H 0.0 **** 0.06
14055 H 195.1507954800046 12.716064344214601 53.59531183211345 H 0.0 **** 0.06
14056 C 157.2106321809353 47.42850219779638 190.75677461584513 C 0.0 **** -0.24
14057 H 157.46587437954832 46.961770205283585 191.70751421393493 H 0.0 **** 0.06
14058 H 157.09215760290306 46.65885276464769 189.99446913182484 H 0.0 **** 0.06
14059 H 158.0072049316006 48.11209340761931 190.46242609185595 H 0.0 **** 0.06
14060 H 156.27748902546261 47.98204150312796 190.86332147166667 H 0.0 **** 0.06
14061 C 83.63115434353045 126.15783119290039 147.90703423322475 C 0.0 **** -0.24
14062 H 82.83333625610635 125.68730535058579 147.33244144948924 H 0.0 **** 0.06
14063 H 84.56869191629437 125.6334693502602 147.72222867593325 H 0.0 **** 0.06
14064 H 83.39140915033403 126.10937790038624 148.96964642596038 H 0.0 **** 0.06
14065 H 83.73090825201626 127.19982572943069 147.60415691650434 H 0.0 **** 0.06
14066 C 131.16816726964333 213.42440140217815 98.13689669568898 C 0.0 **** -0.24
14067 H 131.3810329072448 212.92819825895484 99.08486074173946 H 0.0 **** 0.06
14068 H 131.2371839257632 214.5036287393061 98.269279376921 H 0.0 **** 0.06
14069 H 130.16367083598652 213.16061807664988 97.80685670000402 H 0.0 **** 0.06
14070 H 131.89225581830107 213.1019795178126 97.3887596517019 H 0.0 **** 0.06
14071 C 100.00913486857182 175.05079342127203 158.6217464796973 C 0.0 **** -0.24
14072 H 100.89732818105107 174.66935729449446 159.12577947769478 H 0.0 **** 0.06
14073 H 100.05485261945087 176.1396772116214 158.57917724309453 H 0.0 **** 0.06
14074 H 99.11927547571649 174.74454262032793 159.1714353365553 H 0.0 **** 0.06
14075 H 99.96667837144999 174.64865955646076 157.60898838628583 H 0.0 **** 0.06
14076 C 176.51089574904677 136.36015572140604 36.65716949429839 C 0.0 **** -0.24
14077 H 175.43833710222123 136.24228418718604 36.80924965528334 H 0.0 **** 0.06
14078 H 177.0249890579585 135.45571732693003 36.98443760925818 H 0.0 **** 0.06
14079 H 176.8694209160641 137.21077166205612 37.23644262075675 H 0.0 **** 0.06
14080 H 176.71143551232842 136.52983374971717 35.59930735473728 H 0.0 **** 0.06
14081 C 99.64047145926186 80.61006939017216 209.60024588176185 C 0.0 **** -0.24
14082 H 99.1833450118357 79.71808534256019 209.1732962525145 H 0.0 **** 0.06
14083 H 100.11911322783068 81.18683647106508 208.80790381345173 H 0.0 **** 0.06
14084 H 100.38680075983878 80.31918771902349 210.33860388635188 H 0.0 **** 0.06
14085 H 98.87264337862483 81.21757206806683 210.07917246245327 H 0.0 **** 0.06
14086 C 176.17322845851174 57.185253178522146 189.94911435725 C 0.0 **** -0.24
14087 H 175.90007433627432 56.200506205626084 190.32980108041232 H 0.0 **** 0.06
14088 H 175.298765772969 57.65537988239936 189.49832389112834 H 0.0 **** 0.06
14089 H 176.95694245424494 57.079129106881226 189.19992001113314 H 0.0 **** 0.06
14090 H 176.535763313021 57.80320819706236 190.77024236288793 H 0.0 **** 0.06
14091 C 210.20785212278273 152.71595009282044 84.85257932070789 C 0.0 **** -0.24
14092 H 210.04508417498684 153.74513032166288 84.53376154259627 H 0.0 **** 0.06
14093 H 209.8655356645205 152.03630221648905 84.07304527990823 H 0.0 **** 0.06
14094 H 209.6499042850564 152.52781161762283 85.77040243989484 H 0.0 **** 0.06
14095 H 211.27094741556408 152.5554509670945 85.03420139974321 H 0.0 **** 0.06
14096 C 170.31175801455856 106.32100601172579 77.75591867874117 C 0.0 **** -0.24
14097 H 169.8118740544279 106.67072524074177 76.85228676546281 H 0.0 **** 0.06
14098 H 171.31723562065966 105.98242211929085 77.50717612545806 H 0.0 **** 0.06
14099 H 169.74566390389532 105.49453942142935 78.186629237269 H 0.0 **** 0.06
14100 H 170.36944985186275 107.13675142871847 78.47661293038651 H 0.0 **** 0.06
14101 C 82.98816669866699 144.36663797817693 125.76890775277003 C 0.0 **** -0.24
14102 H 83.43648434046662 143.96220372685815 126.6763620843093 H 0.0 **** 0.06
14103 H 82.76273920317362 145.42341523301087 125.91412973622177 H 0.0 **** 0.06
14104 H 82.06911096331203 143.82486195316307 125.54561102252676 H 0.0 **** 0.06
14105 H 83.68633189597386 144.2548323462707 124.93884449686614 H 0.0 **** 0.06
14106 C 198.06080060343203 169.5183984982167 164.2137253914804 C 0.0 **** -0.24
14107 H 197.11112799491286 169.79713063777456 163.75791133434933 H 0.0 **** 0.06
14108 H 198.82816492059465 170.23718794794326 163.92287336339194 H 0.0 **** 0.06
14109 H 198.3485715124652 168.52291520568895 163.8749894141946 H 0.0 **** 0.06
14110 H 197.95704185974293 169.51658828277348 165.29891569186668 H 0.0 **** 0.06
14111 C 200.01134738855976 146.93368604231233 147.52625867550086 C 0.0 **** -0.24
14112 H 199.13508090564096 146.44254453380887 147.9502671881546 H 0.0 **** 0.06
14113 H 199.75364745651777 147.3606682133709 146.55721012058376 H 0.0 **** 0.06
14114 H 200.81104527556923 146.20380666146116 147.4007934869349 H 0.0 **** 0.06
14115 H 200.34398158173155 147.7251118582733 148.1960554850533 H 0.0 **** 0.06
14116 C 12.221741317961744 114.00135730946677 186.17564083684377 C 0.0 **** -0.24
14117 H 12.16274720825129 113.69769934884987 187.22045118390372 H 0.0 **** 0.06
14118 H 11.217521906464356 114.18915152410618 185.79521627269855 H 0.0 **** 0.06
14119 H 12.689335844543777 113.2082365155476 185.59306733569062 H 0.0 **** 0.06
14120 H 12.81705032491223 114.91121538316976 186.09489667503246 H 0.0 **** 0.06
14121 C 112.54934243945628 203.72309938355275 67.86128256426434 C 0.0 **** -0.24
14122 H 111.52761653830193 203.35410948818463 67.77445648267226 H 0.0 **** 0.06
14123 H 112.56685767139076 204.7951925102106 67.66043756497652 H 0.0 **** 0.06
14124 H 113.18429122901149 203.20853564602174 67.13983933251458 H 0.0 **** 0.06
14125 H 112.9188779016085 203.53624093673363 68.86894797435986 H 0.0 **** 0.06
14126 C 206.31516524798732 113.54747534462085 201.7482741299144 C 0.0 **** -0.24
14127 H 207.07354849476758 113.09377169593007 202.38679115935858 H 0.0 **** 0.06
14128 H 206.79573877302903 113.99858973119841 200.8792395733033 H 0.0 **** 0.06
14129 H 205.78153212022679 114.31536860128743 202.30806137755542 H 0.0 **** 0.06
14130 H 205.61261251757688 112.78295033806158 201.41985020361358 H 0.0 **** 0.06
14131 C 100.43803041926357 82.48313514386012 102.6140373193483 C 0.0 **** -0.24
14132 H 99.97829785813558 81.49511597920741 102.60068694119944 H 0.0 **** 0.06
14133 H 101.51470247308696 82.38348868560104 102.47614602298741 H 0.0 **** 0.06
14134 H 100.23697100914985 82.96320618379775 103.5710033703245 H 0.0 **** 0.06
14135 H 100.0223555846871 83.08764450414458 101.80897584838068 H 0.0 **** 0.06
14136 C 84.0456329713005 202.95460588727974 117.9294645713098 C 0.0 **** -0.24
14137 H 84.70078091829185 203.760474477665 118.26067767998329 H 0.0 **** 0.06
14138 H 83.18158389704985 202.89298918833606 118.59247343083574 H 0.0 **** 0.06
14139 H 84.59021259415897 202.01072161600734 117.95221653324701 H 0.0 **** 0.06
14140 H 83.70899638894377 203.15501323378408 116.91179671731744 H 0.0 **** 0.06
14141 C 156.11411101523345 62.15591631260109 177.06379535547214 C 0.0 **** -0.24
14142 H 156.9542010618386 62.441613450085526 177.69689882051006 H 0.0 **** 0.06
14143 H 155.17973287780188 62.3505034752141 177.59061930645458 H 0.0 **** 0.06
14144 H 156.18331963128247 61.094312763665144 176.82706300773674 H 0.0 **** 0.06
14145 H 156.14017178642308 62.73630784314864 176.14168492858897 H 0.0 **** 0.06
14146 C 23.02394156365871 208.4322015843204 151.1941520129397 C 0.0 **** -0.24
14147 H 23.435533204698828 207.94400136201452 152.0770370484301 H 0.0 **** 0.06
14148 H 21.977641081380455 208.15000623249443 151.07712543317012 H 0.0 **** 0.06
14149 H 23.585551367845696 208.12208504657377 150.3123400626842 H 0.0 **** 0.06
14150 H 23.098518057833076 209.51403090429216 151.30981888737233 H 0.0 **** 0.06
14151 C 10.547369086958298 50.4166072543692 95.86288467986414 C 0.0 **** -0.24
14152 H 9.465516787051797 50.46877007045961 95.99148407689596 H 0.0 **** 0.06
14153 H 10.995865795046114 51.35726215906678 96.18425706418115 H 0.0 **** 0.06
14154 H 10.780164590816156 50.24227941398421 94.81288030987126 H 0.0 **** 0.06
14155 H 10.945259184548846 49.599538475241815 96.46487987975924 H 0.0 **** 0.06
14156 C 0.7558177335833349 19.479333520873013 98.54720423102032 C 0.0 **** -0.24
14157 H 0.9911949461253045 18.966597636468236 97.614990948507 H 0.0 **** 0.06
14158 H 1.4605456891656559 19.169628605407297 99.31972318332015 H 0.0 **** 0.06
14159 H -0.25831009759487955 19.22429242110553 98.856656870005 H 0.0 **** 0.06
14160 H 0.8298403966373655 20.55681542051113 98.39744592224912 H 0.0 **** 0.06
14161 C 105.97948310201433 202.39038159783132 30.95862629194133 C 0.0 **** -0.24
14162 H 107.01902349805464 202.7182358595877 30.95041128346375 H 0.0 **** 0.06
14163 H 105.74133316925038 201.9650237849818 31.933043790152794 H 0.0 **** 0.06
14164 H 105.83056108605926 201.6368501000698 30.185375589811713 H 0.0 **** 0.06
14165 H 105.32938980656 203.24323868773635 30.765477089646424 H 0.0 **** 0.06
14166 C 74.02714043613616 141.43891380224596 215.68887008304173 C 0.0 **** -0.24
14167 H 74.65062680532878 140.7700388613681 215.09513343529844 H 0.0 **** 0.06
14168 H 73.341724131462 140.8490986671565 216.29753643927356 H 0.0 **** 0.06
14169 H 73.45695109742974 142.0889169438645 215.0255804316824 H 0.0 **** 0.06
14170 H 74.65992481620225 142.04566176202695 216.33633666342075 H 0.0 **** 0.06
14171 C 190.24341919467366 171.62739608856998 118.03227561860224 C 0.0 **** -0.24
14172 H 189.16000334974964 171.57338613724812 117.92048479850509 H 0.0 **** 0.06
14173 H 190.64316112188845 172.36633873354333 117.3377079125453 H 0.0 **** 0.06
14174 H 190.67927577802428 170.6520619734342 117.81793354667157 H 0.0 **** 0.06
14175 H 190.4886615451009 171.91882756437252 119.05353171776265 H 0.0 **** 0.06
14176 C 196.93905653691215 12.99846720833034 156.0181513185094 C 0.0 **** -0.24
14177 H 196.97295566376485 14.081617284755609 156.13784220263193 H 0.0 **** 0.06
14178 H 197.523675441805 12.710710526526668 155.14388992820903 H 0.0 **** 0.06
14179 H 195.90454520007313 12.680387114779933 155.88403753745422 H 0.0 **** 0.06
14180 H 197.3536039768475 12.522434580493822 156.9063165510185 H 0.0 **** 0.06
14181 C 93.69836693762646 137.3135893650255 216.88590504078667 C 0.0 **** -0.24
14182 H 93.43610019301308 136.34361619920344 216.46248874131828 H 0.0 **** 0.06
14183 H 93.12650485455207 138.09480903437452 216.38413642900656 H 0.0 **** 0.06
14184 H 94.76314647984042 137.49446739318194 216.74377208238246 H 0.0 **** 0.06
14185 H 93.46747282857926 137.3192454420958 217.9507703101782 H 0.0 **** 0.06
14186 C 64.17001245175885 11.429825125923784 9.611979311978274 C 0.0 **** -0.24
14187 H 63.31681620315413 10.7568787082446 9.530564291572801 H 0.0 **** 0.06
14188 H 64.66570908733812 11.272878220612455 10.570414842073177 H 0.0 **** 0.06
14189 H 63.82621895586021 12.462215901446527 9.544477730021882 H 0.0 **** 0.06
14190 H 64.87130556068325 11.227327673391613 8.80246038424518 H 0.0 **** 0.06
14191 C 150.0569116713694 18.675057728487502 20.372079495681632 C 0.0 **** -0.24
14192 H 149.50961311030017 17.752224308018924 20.17886483181843 H 0.0 **** 0.06
14193 H 151.12796996680044 18.475476909262795 20.336263799754278 H 0.0 **** 0.06
14194 H 149.79057566235485 19.055525131629764 21.35794146057951 H 0.0 **** 0.06
14195 H 149.7994456068634 19.4150291903413 19.614937777697875 H 0.0 **** 0.06
14196 C 206.93720854621705 148.69496547785815 159.87106925890293 C 0.0 **** -0.24
14197 H 207.83453213180945 148.45752207474226 160.4418609348573 H 0.0 **** 0.06
14198 H 206.23640586490737 147.86154735905103 159.93527211779448 H 0.0 **** 0.06
14199 H 207.20397446998527 148.86632675670023 158.82811173634784 H 0.0 **** 0.06
14200 H 206.4730179385435 149.59249317569333 160.2795729243276 H 0.0 **** 0.06
14201 C 42.919743680478774 8.042627440808488 127.23665973615913 C 0.0 **** -0.24
14202 H 42.88175154673186 7.032879153120575 126.82723680149225 H 0.0 **** 0.06
14203 H 41.929957903884755 8.496745082467328 127.176265654364 H 0.0 **** 0.06
14204 H 43.62998312400502 8.639520460469129 126.66555224017564 H 0.0 **** 0.06
14205 H 43.236461279382596 7.999901155393516 128.2786720013147 H 0.0 **** 0.06
14206 C 216.65919666242712 10.564981252863447 155.9529915709868 C 0.0 **** -0.24
14207 H 217.38900233419037 9.780084505695271 155.75916205054142 H 0.0 **** 0.06
14208 H 215.66969137364316 10.225335174251455 155.64566605069234 H 0.0 **** 0.06
14209 H 216.92762744283422 11.459103058969333 155.39072807319116 H 0.0 **** 0.06
14210 H 216.6491082988383 10.79575818743973 157.01841795261527 H 0.0 **** 0.06
14211 C 97.39895495281648 83.71219866909736 14.913698296905395 C 0.0 **** -0.24
14212 H 97.44286570343358 83.6590723327517 16.001973350289603 H 0.0 **** 0.06
14213 H 97.21953001941255 84.7431819406353 14.608329129700167 H 0.0 **** 0.06
14214 H 96.58943852008825 83.07875650467712 14.551827745187452 H 0.0 **** 0.06
14215 H 98.34407143599849 83.3677893052242 14.494661127929149 H 0.0 **** 0.06
14216 C 175.5802867370838 40.37815733464765 139.18844492830272 C 0.0 **** -0.24
14217 H 175.65792744199618 40.521924823674055 140.26532418674873 H 0.0 **** 0.06
14218 H 176.5788419273294 40.29626052720886 138.7588293018598 H 0.0 **** 0.06
14219 H 175.0630583984794 41.22944427205482 138.74461325838064 H 0.0 **** 0.06
14220 H 175.0199592006622 39.46596645805482 138.98272910994848 H 0.0 **** 0.06
14221 C 184.50813942248033 11.075850403506024 90.13141043812296 C 0.0 **** -0.24
14222 H 184.65296478404332 11.642789088743257 89.2122606876985 H 0.0 **** 0.06
14223 H 184.185700821246 10.063684779557661 89.88562954478091 H 0.0 **** 0.06
14224 H 183.7473745599668 11.562032461887156 90.7418725267162 H 0.0 **** 0.06
14225 H 185.4466603788544 11.033920417308963 90.68387167850294 H 0.0 **** 0.06
14226 C 212.93062389332806 12.598514155841471 210.7342014267743 C 0.0 **** -0.24
14227 H 213.06746748489448 11.570759592819854 210.3986295000297 H 0.0 **** 0.06
14228 H 212.4061877498269 12.60161074165174 211.6899442194365 H 0.0 **** 0.06
14229 H 212.34456959780084 13.146642148088873 209.9963354445887 H 0.0 **** 0.06
14230 H 213.90394060344534 13.074578396487382 210.85107550192697 H 0.0 **** 0.06
14231 C 156.95755657502065 205.71623226175845 26.848987376808736 C 0.0 **** -0.24
14232 H 156.11970094851364 206.32329130250713 26.505855609782003 H 0.0 **** 0.06
14233 H 156.64459226373936 205.117878292348 27.706306484504125 H 0.0 **** 0.06
14234 H 157.7825621702366 206.3661094983616 27.140554658746524 H 0.0 **** 0.06
14235 H 157.28158572482806 205.05561951348506 26.044063738222192 H 0.0 **** 0.06
14236 C 137.63640627387906 173.46730586720605 101.64782949512356 C 0.0 **** -0.24
14237 H 137.36125096882927 174.11873186634188 102.47816730984702 H 0.0 **** 0.06
14238 H 136.73635653683993 173.0300198681306 101.21568766455611 H 0.0 **** 0.06
14239 H 138.28871728787874 172.67300162625563 102.01103777512874 H 0.0 **** 0.06
14240 H 138.1593296642734 174.0485825345549 100.88836474893701 H 0.0 **** 0.06
14241 C 183.18800203233687 205.65089332059915 159.84260990148422 C 0.0 **** -0.24
14242 H 182.12692734556853 205.45159139335232 159.69215263228276 H 0.0 **** 0.06
14243 H 183.70225700277246 205.62720306819975 158.88179423997434 H 0.0 **** 0.06
14244 H 183.61020283863883 204.89074897246314 160.49988852244556 H 0.0 **** 0.06
14245 H 183.3116747099874 206.6333775957412 160.29742837424794 H 0.0 **** 0.06
14246 C 6.009528377008195 210.68824121125627 71.88259114647603 C 0.0 **** -0.24
14247 H 6.1692381194950485 211.6557112937553 71.40594076681468 H 0.0 **** 0.06
14248 H 6.763376744977052 210.5350965085372 72.65565614780895 H 0.0 **** 0.06
14249 H 6.08910093542255 209.89791790536538 71.13683086340775 H 0.0 **** 0.06
14250 H 5.0166066644837315 210.6647530617288 72.3327688150513 H 0.0 **** 0.06
14251 C 204.47998531819894 56.10772945821701 124.96012878462945 C 0.0 **** -0.24
14252 H 205.3007164029696 55.48120820460019 124.6122240188548 H 0.0 **** 0.06
14253 H 203.96862494346362 56.54481532266806 124.10245947109563 H 0.0 **** 0.06
14254 H 204.87274077048687 56.90275015144424 125.59398317518195 H 0.0 **** 0.06
14255 H 203.77706727507712 55.500983286463224 125.53200767420053 H 0.0 **** 0.06
14256 C 77.85818722864768 174.74059881794938 98.65550522949792 C 0.0 **** -0.24
14257 H 77.92187170783792 175.7566406986772 99.0463419449365 H 0.0 **** 0.06
14258 H 77.28272407523095 174.12255979090344 99.34563208656624 H 0.0 **** 0.06
14259 H 78.86109321366824 174.32976274106642 98.54796264683898 H 0.0 **** 0.06
14260 H 77.36519876149445 174.75625231572275 97.68369121993243 H 0.0 **** 0.06
14261 C 29.69378551063184 65.99341413588729 128.2404790561576 C 0.0 **** -0.24
14262 H 30.54760395349834 65.31912034280504 128.16798010452192 H 0.0 **** 0.06
14263 H 28.822696400012617 65.43954507755609 128.59306662607304 H 0.0 **** 0.06
14264 H 29.48231566458489 66.41766822900047 127.25900205502536 H 0.0 **** 0.06
14265 H 29.923162227306875 66.79523838557077 128.9413672845618 H 0.0 **** 0.06
14266 C 55.77871697894459 127.72921471385543 200.50300281128148 C 0.0 **** -0.24
14267 H 56.44450121046819 127.62102752572973 201.35905013517606 H 0.0 **** 0.06
14268 H 56.24101547811374 127.27802626343173 199.62483926009818 H 0.0 **** 0.06
14269 H 55.59637317369362 128.78690413605318 200.31593881161652 H 0.0 **** 0.06
14270 H 54.833552274973755 127.22845033717466 200.7134733866696 H 0.0 **** 0.06
14271 C 62.80851903309325 53.286948552782206 198.9647883645637 C 0.0 **** -0.24
14272 H 63.290888203960506 52.36918747328821 199.29878491213287 H 0.0 **** 0.06
14273 H 62.83063758564526 54.02324037911586 199.76869772887883 H 0.0 **** 0.06
14274 H 61.774433285932275 53.07595734504963 198.6927911037793 H 0.0 **** 0.06
14275 H 63.33949725916605 53.679896969456166 198.09691577803363 H 0.0 **** 0.06
14276 C 127.78330353752757 144.58097212559636 35.43923754007005 C 0.0 **** -0.24
14277 H 126.93510084057264 145.1344413093252 35.03699112888086 H 0.0 **** 0.06
14278 H 127.6104348408711 143.51153104575673 35.31662295718462 H 0.0 **** 0.06
14279 H 127.8982668127047 144.81163411423483 36.49841629365545 H 0.0 **** 0.06
14280 H 128.68941165596175 144.86628203306856 34.90491978055937 H 0.0 **** 0.06
14281 C 177.62218920717714 168.62124472702124 88.48093456169596 C 0.0 **** -0.24
14282 H 178.5589565190251 168.98401010243413 88.90644303150816 H 0.0 **** 0.06
14283 H 177.3066640993486 167.72268828505867 89.01182661807309 H 0.0 **** 0.06
14284 H 177.76855994867418 168.38825896628697 87.42670908250898 H 0.0 **** 0.06
14285 H 176.85657534621828 169.39058039022837 88.58092550543273 H 0.0 **** 0.06
14286 C 189.61095253631274 92.37275420555197 99.45699242958985 C 0.0 **** -0.24
14287 H 190.11394729202806 93.18720553238337 99.97894976500139 H 0.0 **** 0.06
14288 H 189.32548889578135 91.60293754903877 100.17486566685004 H 0.0 **** 0.06
14289 H 190.28605348957538 91.94566564717569 98.71445069531929 H 0.0 **** 0.06
14290 H 188.7195163376721 92.7549121713471 98.96039811211644 H 0.0 **** 0.06
14291 C 169.82054678174353 35.47462859655464 10.035495585907825 C 0.0 **** -0.24
14292 H 169.76729851168204 36.55744101284532 9.928285476060864 H 0.0 **** 0.06
14293 H 169.879430565092 35.01438382997111 9.049175358065384 H 0.0 **** 0.06
14294 H 168.92908679232588 35.11647757358125 10.551053613716903 H 0.0 **** 0.06
14295 H 170.7057169781128 35.210283412777784 10.614719633698144 H 0.0 **** 0.06
14296 C 190.2607440052672 140.32967403929587 140.59797813955754 C 0.0 **** -0.24
14297 H 190.70423998008394 140.61894618712432 139.64455163306593 H 0.0 **** 0.06
14298 H 189.47402570660248 141.03625065822814 140.86123832696052 H 0.0 **** 0.06
14299 H 191.02853646562295 140.33516375286933 141.37224925051726 H 0.0 **** 0.06
14300 H 189.83836935138046 139.32926543417437 140.51331184092504 H 0.0 **** 0.06
14301 C 21.95674296217409 60.841050705031535 55.8682397561459 C 0.0 **** -0.24
14302 H 22.301075460366775 60.41439733070689 54.92536373506414 H 0.0 **** 0.06
14303 H 20.900823498490666 60.606864840934406 56.00861506686283 H 0.0 **** 0.06
14304 H 22.089292995912743 61.92260574419157 55.845738245368466 H 0.0 **** 0.06
14305 H 22.535685493499315 60.42111282718861 56.69034610486898 H 0.0 **** 0.06
14306 C 32.32525217411421 164.93686815127373 184.08112979114094 C 0.0 **** -0.24
14307 H 32.258816798194545 164.6409132856826 183.03460211347726 H 0.0 **** 0.06
14308 H 33.247669694691595 165.49560298152446 184.24285629595568 H 0.0 **** 0.06
14309 H 32.32219747577918 164.04813217221147 184.71223054838157 H 0.0 **** 0.06
14310 H 31.470950519470506 165.56448996092442 184.3354105191022 H 0.0 **** 0.06
14311 C 133.17043113790726 25.44704517246521 90.62001220213502 C 0.0 **** -0.24
14312 H 133.74260721127968 25.930872730947897 91.41075017915394 H 0.0 **** 0.06
14313 H 133.40129299058208 25.918600193899806 89.66495419435513 H 0.0 **** 0.06
14314 H 132.10528017729615 25.54884561538779 90.82795507505442 H 0.0 **** 0.06
14315 H 133.4325441724713 24.389862149625202 90.5763893599768 H 0.0 **** 0.06
14316 C 121.82240266044953 28.992814708723884 44.394962773616214 C 0.0 **** -0.24
14317 H 121.18188037689758 28.944215741432117 43.51470231732134 H 0.0 **** 0.06
14318 H 122.48704719044717 28.12814159180708 44.40889876196837 H 0.0 **** 0.06
14319 H 121.20621309860665 28.992628518816744 45.29409542585469 H 0.0 **** 0.06
14320 H 122.41581945125016 29.906668292112357 44.362003988484176 H 0.0 **** 0.06
14321 C 113.67606095756612 19.737972701771767 116.91075960919893 C 0.0 **** -0.24
14322 H 114.68841209288702 19.600416477671047 116.53187098750756 H 0.0 **** 0.06
14323 H 113.71877285368352 20.054226504294377 117.95293779014479 H 0.0 **** 0.06
14324 H 113.1312597767237 18.795507428316014 116.83917013053194 H 0.0 **** 0.06
14325 H 113.16696619254257 20.498329362936417 116.31911411382602 H 0.0 **** 0.06
14326 C 108.30123620264798 96.22549737396662 182.35193846961522 C 0.0 **** -0.24
14327 H 108.93638268396093 95.5274870560554 182.89617431768608 H 0.0 **** 0.06
14328 H 108.2364510444555 95.91941147920323 181.30772802738892 H 0.0 **** 0.06
14329 H 108.72653692826363 97.22746672070213 182.41165331293013 H 0.0 **** 0.06
14330 H 107.30334038334992 96.22771765698621 182.79223855741503 H 0.0 **** 0.06
14331 C 156.94494920714902 75.50194436802941 86.29359011095966 C 0.0 **** -0.24
14332 H 156.65528989574318 76.27269471463298 87.00771511424477 H 0.0 **** 0.06
14333 H 156.3717679389415 74.5948042347405 86.48507418098973 H 0.0 **** 0.06
14334 H 158.0089427256429 75.28981000022411 86.40076262221538 H 0.0 **** 0.06
14335 H 156.74514283300482 75.85225367135082 85.28079894477128 H 0.0 **** 0.06
14336 C 80.52485410064139 200.58995761285613 56.03744618317499 C 0.0 **** -0.24
14337 H 80.58919057278592 201.46080483317436 56.68920385310446 H 0.0 **** 0.06
14338 H 80.71532359871054 199.6863515552575 56.61746999166107 H 0.0 **** 0.06
14339 H 81.26586242256582 200.6759541810462 55.24232329704894 H 0.0 **** 0.06
14340 H 79.52710180604316 200.5375845639484 55.599564245802256 H 0.0 **** 0.06
14341 C 64.11749902118896 81.85142629133298 202.40064909056656 C 0.0 **** -0.24
14342 H 64.36551517991563 80.90645747929267 202.88416751705114 H 0.0 **** 0.06
14343 H 63.204531596013396 82.2544736038966 202.83986941579317 H 0.0 **** 0.06
14344 H 63.96532145260363 81.68363771643766 201.33464387893645 H 0.0 **** 0.06
14345 H 64.93312851946973 82.55891319660611 202.54481535271321 H 0.0 **** 0.06
14346 C 14.9267192368239 53.3042077012135 197.41339285083052 C 0.0 **** -0.24
14347 H 15.048745121796244 52.56617697663302 196.62064732525374 H 0.0 **** 0.06
14348 H 13.90343803714012 53.678046408520174 197.40658670085895 H 0.0 **** 0.06
14349 H 15.6174148624592 54.13087122334099 197.24805651204443 H 0.0 **** 0.06
14350 H 15.13854130743519 52.84116057549437 198.376527257962 H 0.0 **** 0.06
14351 C 189.02970601054645 148.96426185829 135.26035981627842 C 0.0 **** -0.24
14352 H 188.67080694801427 149.50879379126945 136.13342485649576 H 0.0 **** 0.06
14353 H 188.282583710302 149.0186703182377 134.46771289153003 H 0.0 **** 0.06
14354 H 189.20109861796504 147.92174333485684 135.52803468462417 H 0.0 **** 0.06
14355 H 189.96195039730543 149.40795814617462 134.91281540051858 H 0.0 **** 0.06
14356 C 19.955367297439537 154.06482797524393 125.44653905691591 C 0.0 **** -0.24
14357 H 19.1539619716918 153.8168712384301 124.75078472370136 H 0.0 **** 0.06
14358 H 19.741043670469836 153.6219829631205 126.42006401475884 H 0.0 **** 0.06
14359 H 20.026809483236164 155.1474222938104 125.54687188574651 H 0.0 **** 0.06
14360 H 20.89848857624706 153.6712471867587 125.06776927356505 H 0.0 **** 0.06
14361 C 206.10014607937356 198.92565238700743 138.74098069879238 C 0.0 **** -0.24
14362 H 206.95890237930448 198.48311902701116 139.2455983525436 H 0.0 **** 0.06
14363 H 206.42959546957758 199.4127016167066 137.82300069381188 H 0.0 **** 0.06
14364 H 205.63392401020383 199.66130523181477 139.3964103375614 H 0.0 **** 0.06
14365 H 205.37890802938622 198.14484124485253 138.4990906895287 H 0.0 **** 0.06
14366 C 6.28064501531378 160.88531358584328 68.53147337261834 C 0.0 **** -0.24
14367 H 5.967089370578378 160.18079271279186 69.30227123555414 H 0.0 **** 0.06
14368 H 6.138502059938503 161.90516379135425 68.89184971793128 H 0.0 **** 0.06
14369 H 5.684721482137462 160.73013597559714 67.63249607810633 H 0.0 **** 0.06
14370 H 7.333972294764692 160.72542942282783 68.30151722308739 H 0.0 **** 0.06
14371 C 104.70841300239358 174.25270271778305 79.07852648404885 C 0.0 **** -0.24
14372 H 104.58116644297122 174.6879595365848 80.06976003515895 H 0.0 **** 0.06
14373 H 104.75008144689001 175.0476111276945 78.33429030709443 H 0.0 **** 0.06
14374 H 103.86738892764761 173.59414336368076 78.86082433707101 H 0.0 **** 0.06
14375 H 105.63520297834573 173.67930894708059 79.05056101196992 H 0.0 **** 0.06
14376 C 189.16059407898953 65.31071958496454 115.89112652570412 C 0.0 **** -0.24
14377 H 189.74883480603467 66.02471041061267 115.31432925506107 H 0.0 **** 0.06
14378 H 188.10397047440682 65.56874032554447 115.81840791769139 H 0.0 **** 0.06
14379 H 189.4721288826622 65.34273530709109 116.93548671623398 H 0.0 **** 0.06
14380 H 189.3179323880539 64.30749709241309 115.49594756459055 H 0.0 **** 0.06
14381 C 45.43348874492443 89.58594721258955 80.64613386646688 C 0.0 **** -0.24
14382 H 45.37883047637075 90.16161057442132 81.57058468676202 H 0.0 **** 0.06
14383 H 46.472262751117626 89.32352798062571 80.44267903643008 H 0.0 **** 0.06
14384 H 45.041744556494734 90.18207381829545 79.82271740066626 H 0.0 **** 0.06
14385 H 44.8428426724206 88.67611422826103 80.74989938512003 H 0.0 **** 0.06
14386 C 28.678392674097395 156.63056543435584 135.9603935974219 C 0.0 **** -0.24
14387 H 28.826028042946305 155.5900175523355 135.6703762721416 H 0.0 **** 0.06
14388 H 29.484265179079827 157.239249829264 135.54836207338894 H 0.0 **** 0.06
14389 H 28.681763397303115 156.70989222227524 137.04711160193244 H 0.0 **** 0.06
14390 H 27.722272305343296 156.98348814192838 135.57365655147663 H 0.0 **** 0.06
14391 C 53.29379409079334 126.64003077576369 99.87363077705514 C 0.0 **** -0.24
14392 H 53.04851613718483 126.54477062930583 98.81566793568167 H 0.0 **** 0.06
14393 H 52.765909118357456 127.49689614049883 100.29306056988462 H 0.0 **** 0.06
14394 H 54.368135884114395 126.78359539674743 99.98641392239274 H 0.0 **** 0.06
14395 H 52.991432917153816 125.73415629019236 100.3990556277438 H 0.0 **** 0.06
14396 C 32.58180231914983 35.727752234249294 27.269000759535118 C 0.0 **** -0.24
14397 H 33.09008269651166 34.76444868183296 27.22937177185257 H 0.0 **** 0.06
14398 H 31.522007139311384 35.570546352453135 27.47386572429143 H 0.0 **** 0.06
14399 H 32.69603102618302 36.23737106780388 26.312460338377107 H 0.0 **** 0.06
14400 H 33.018273856270085 36.33645013057762 28.059578124425627 H 0.0 **** 0.06
14401 C 84.64897816435591 203.19874465462738 197.00253071036585 C 0.0 **** -0.24
14402 H 83.85398169768202 203.93847853829212 196.9062522462606 H 0.0 **** 0.06
14403 H 85.10508635112278 203.28203714587283 197.98932036885324 H 0.0 **** 0.06
14404 H 85.40490611451635 203.37627128188376 196.23667015460077 H 0.0 **** 0.06
14405 H 84.23245803922545 202.19880039799506 196.8772804729756 H 0.0 **** 0.06
14406 C 73.67409466752055 125.73995204308581 145.6650644117256 C 0.0 **** -0.24
14407 H 74.07533464436914 125.47460815729538 146.6432143190483 H 0.0 **** 0.06
14408 H 73.29364671764249 126.76198568284359 145.69423233763422 H 0.0 **** 0.06
14409 H 72.86465574572834 125.05768252684474 145.40609130542822 H 0.0 **** 0.06
14410 H 74.46347487093742 125.66764368790957 144.9166717750528 H 0.0 **** 0.06
14411 C 98.59763566209138 81.06277629510163 82.44512785585721 C 0.0 **** -0.24
14412 H 98.89112784529196 81.97538037007558 82.965728767994 H 0.0 **** 0.06
14413 H 99.10700782679557 80.20935353975335 82.8921297872202 H 0.0 **** 0.06
14414 H 98.87378129334142 81.14170811363897 81.3931247600546 H 0.0 **** 0.06
14415 H 97.51981322720478 80.92792584711708 82.52855609388814 H 0.0 **** 0.06
14416 C 121.68832904017854 203.72560891082904 110.12819854619765 C 0.0 **** -0.24
14417 H 121.85280370720655 203.48191765771293 111.1780617768158 H 0.0 **** 0.06
14418 H 121.20663451472898 204.70060324628662 110.05361591822448 H 0.0 **** 0.06
14419 H 121.04802126463788 202.96838852566898 109.67510210258631 H 0.0 **** 0.06
14420 H 122.64497959524134 203.75201919479485 109.60700823629249 H 0.0 **** 0.06
14421 C 122.82852649460365 20.04554858125495 209.09575656864018 C 0.0 **** -0.24
14422 H 123.46046246612731 20.531736719878367 208.35108469797933 H 0.0 **** 0.06
14423 H 123.08869225874118 18.988710695731186 209.15751902258242 H 0.0 **** 0.06
14424 H 121.78332268014167 20.14637969858248 208.80521880775754 H 0.0 **** 0.06
14425 H 122.98377311760261 20.516704739136586 210.06644472730522 H 0.0 **** 0.06
14426 C 209.9777311193601 85.93480278056721 194.8476782388477 C 0.0 **** -0.24
14427 H 210.07635933090035 85.44749920649953 193.87841211700257 H 0.0 **** 0.06
14428 H 209.0107359816286 85.68223594216023 195.28401704303508 H 0.0 **** 0.06
14429 H 210.047951459032 87.01489223056448 194.72110410596272 H 0.0 **** 0.06
14430 H 210.77489349572545 85.5929850100601 195.5087530567697 H 0.0 **** 0.06
14431 C 12.974252782604651 213.6171445151669 169.20428732673057 C 0.0 **** -0.24
14432 H 13.072558865734251 212.80162287372661 169.92028278127827 H 0.0 **** 0.06
14433 H 12.838217911910434 214.55697795924513 169.74037851894983 H 0.0 **** 0.06
14434 H 12.111861616602667 213.43531979013352 168.56367795524076 H 0.0 **** 0.06
14435 H 13.875630497000444 213.67422768843193 168.59329315318132 H 0.0 **** 0.06
14436 C 106.43472011148332 84.02398499383624 36.728043299608174 C 0.0 **** -0.24
14437 H 106.60347996834265 83.75678404889327 37.77136966635156 H 0.0 **** 0.06
14438 H 106.8528683394786 83.2513269854539 36.08220290704169 H 0.0 **** 0.06
14439 H 106.91768859321705 84.97726434599868 36.514693705867174 H 0.0 **** 0.06
14440 H 105.36351443087831 84.11197287773946 36.54502507855209 H 0.0 **** 0.06
14441 C 57.8663462310563 2.7091665963172034 145.83146747053058 C 0.0 **** -0.24
14442 H 57.89741153128844 1.6357927609979015 146.01657738621861 H 0.0 **** 0.06
14443 H 58.233450789332736 3.2398143494921214 146.71051545473847 H 0.0 **** 0.06
14444 H 56.839657168820466 3.0120730991605456 145.62556613741106 H 0.0 **** 0.06
14445 H 58.49488031646912 2.9479908903211367 144.97311497325057 H 0.0 **** 0.06
14446 C 159.34081128422582 212.20193254035252 130.95511316305345 C 0.0 **** -0.24
14447 H 160.28958586359693 212.68059526380284 130.7105033743859 H 0.0 **** 0.06
14448 H 159.31743736436536 211.20171236579557 130.5225875588315 H 0.0 **** 0.06
14449 H 158.52007673035448 212.7932283054528 130.548195162657 H 0.0 **** 0.06
14450 H 159.23720757128987 212.1323368192834 132.03780602708662 H 0.0 **** 0.06
14451 C 45.733070403035526 55.64540207921684 200.32246783291447 C 0.0 **** -0.24
14452 H 45.96781466596684 56.51071900058888 200.94121080851627 H 0.0 **** 0.06
14453 H 46.644627647988614 55.27883293457606 199.8499177332564 H 0.0 **** 0.06
14454 H 45.01557865173447 55.93300958505627 199.55383160579015 H 0.0 **** 0.06
14455 H 45.304605175027916 54.85984009713265 200.9437922523294 H 0.0 **** 0.06
14456 C 9.962094155163598 214.29950308719464 171.97344480144332 C 0.0 **** -0.24
14457 H 9.081926125273213 213.8955490174885 172.47387210762403 H 0.0 **** 0.06
14458 H 9.883008900570431 215.3851666978874 171.92217908006234 H 0.0 **** 0.06
14459 H 10.026324630264725 213.89104360853244 170.9656261607024 H 0.0 **** 0.06
14460 H 10.855959927715077 214.02547725304402 172.53411668877652 H 0.0 **** 0.06
14461 C 164.063222432769 33.55153765942241 48.47686958388374 C 0.0 **** -0.24
14462 H 163.58241925901248 33.6585803146603 47.50476243619637 H 0.0 **** 0.06
14463 H 164.80280827821736 34.34073411497562 48.60498217771563 H 0.0 **** 0.06
14464 H 164.55362444942992 32.579722865802395 48.53388718420844 H 0.0 **** 0.06
14465 H 163.31178884477637 33.62513157607617 49.26372322570772 H 0.0 **** 0.06
14466 C 199.79625770927677 196.09643854509193 182.4716427015121 C 0.0 **** -0.24
14467 H 198.8657572011287 196.61411046056546 182.7038359886658 H 0.0 **** 0.06
14468 H 199.62026026959438 195.37092724416863 181.67762923501587 H 0.0 **** 0.06
14469 H 200.15783134003198 195.58049809363212 183.36154612860872 H 0.0 **** 0.06
14470 H 200.54246836661758 196.8205488917088 182.14404538168702 H 0.0 **** 0.06
14471 C 150.50872933840822 103.09567959489999 196.70983508560946 C 0.0 **** -0.24
14472 H 150.89144523116647 102.38098778629842 195.98077177392267 H 0.0 **** 0.06
14473 H 151.00298423475363 104.05724662216346 196.56823670804286 H 0.0 **** 0.06
14474 H 150.70692208454983 102.72876710604226 197.71707487991387 H 0.0 **** 0.06
14475 H 149.43452616800852 103.21581750058567 196.5712401373304 H 0.0 **** 0.06
14476 C 80.32970923987733 31.02643812872182 182.24754840066157 C 0.0 **** -0.24
14477 H 80.95921163811062 30.160783209575385 182.04347141939627 H 0.0 **** 0.06
14478 H 79.67954008489318 31.212409843359694 181.39166712540185 H 0.0 **** 0.06
14479 H 80.95733862257651 31.8997211135935 182.42315964956373 H 0.0 **** 0.06
14480 H 79.72062678524253 30.83330846971819 183.1307616473127 H 0.0 **** 0.06
14481 C 112.38163733708097 207.33386663429928 136.70885765033626 C 0.0 **** -0.24
14482 H 113.14158603714009 207.83487118557287 136.10747043315132 H 0.0 **** 0.06
14483 H 112.82668987418134 206.98953976258926 137.64199931651467 H 0.0 **** 0.06
14484 H 111.98643071049997 206.48122030836578 136.15679778085257 H 0.0 **** 0.06
14485 H 111.57312895484267 208.03194185511956 136.9263509189766 H 0.0 **** 0.06
14486 C 121.4229511229144 172.56469651399073 57.71597360074017 C 0.0 **** -0.24
14487 H 122.27325335782051 171.97616333179138 58.06046298907248 H 0.0 **** 0.06
14488 H 120.88900575186729 172.96991778255997 58.57613185307572 H 0.0 **** 0.06
14489 H 120.75110001436813 171.9279594594807 57.139456327404275 H 0.0 **** 0.06
14490 H 121.77704486388537 173.3827335073275 57.089572597242125 H 0.0 **** 0.06
14491 C 111.27983832961178 174.85896764848457 132.87039776237538 C 0.0 **** -0.24
14492 H 112.2776545369868 175.248607092828 133.0716564366644 H 0.0 **** 0.06
14493 H 110.89976791870697 175.29273403465652 131.94558895086874 H 0.0 **** 0.06
14494 H 110.61577690843882 175.11954385911088 133.6949574117906 H 0.0 **** 0.06
14495 H 111.32663305689135 173.77461425310767 132.7717615724158 H 0.0 **** 0.06
14496 C 93.38292951391732 22.54368242130215 90.89903994433536 C 0.0 **** -0.24
14497 H 93.88720282099744 23.280432554872675 90.27303609141808 H 0.0 **** 0.06
14498 H 93.50344604965396 22.815951617253432 91.94819217722664 H 0.0 **** 0.06
14499 H 93.81982527539456 21.56042378825282 90.72580402501995 H 0.0 **** 0.06
14500 H 92.32163063177434 22.519575594964493 90.64946691025432 H 0.0 **** 0.06
14501 C 211.1406438931161 35.6288697851856 33.37520946843836 C 0.0 **** -0.24
14502 H 211.74890184423995 36.01648755513236 32.55845684215069 H 0.0 **** 0.06
14503 H 211.45619412546586 36.087878324095286 34.312830591614016 H 0.0 **** 0.06
14504 H 211.2660226304769 34.54729083132462 33.43921182244847 H 0.0 **** 0.06
14505 H 210.0920048854672 35.86253977992905 33.19010487976732 H 0.0 **** 0.06
14506 C 114.99441224582608 46.84913455559965 42.521158899646025 C 0.0 **** -0.24
14507 H 114.65296909501814 47.46677162620199 41.68941483433258 H 0.0 **** 0.06
14508 H 114.39808418016099 47.07000620440118 43.406569930530736 H 0.0 **** 0.06
14509 H 116.0437009339991 47.0652047044627 42.72550443824264 H 0.0 **** 0.06
14510 H 114.8836122586444 45.79718593687579 42.26078689899748 H 0.0 **** 0.06
14511 C 88.06710660445202 130.42892775135988 83.5690523783835 C 0.0 **** -0.24
14512 H 89.04850078811683 130.41797057457586 83.09314633620687 H 0.0 **** 0.06
14513 H 87.66073017820815 129.4178012776968 83.5853798317479 H 0.0 **** 0.06
14514 H 87.3984379562823 131.0804211171906 83.00719496287354 H 0.0 **** 0.06
14515 H 88.16336561769856 130.79990053933864 84.58905606264574 H 0.0 **** 0.06
14516 C 88.89726908894193 65.82870464581764 204.05068989708118 C 0.0 **** -0.24
14517 H 89.06689211502511 64.75147865048304 204.0470375991922 H 0.0 **** 0.06
14518 H 89.80187260279469 66.33706626710914 204.38662457319424 H 0.0 **** 0.06
14519 H 88.0753410176921 66.06381455472709 204.72759663294812 H 0.0 **** 0.06
14520 H 88.64583489535482 66.15978698800927 203.04397323618903 H 0.0 **** 0.06
14521 C 13.825955419312095 211.9522778981242 116.92223598168061 C 0.0 **** -0.24
14522 H 14.197077144953639 211.18736048714777 117.60434752377961 H 0.0 **** 0.06
14523 H 13.13471440689463 211.50020543311422 116.2109501840302 H 0.0 **** 0.06
14524 H 14.663176580004347 212.39587208106957 116.38409561692669 H 0.0 **** 0.06
14525 H 13.308799686462748 212.72530418666588 117.49091466702464 H 0.0 **** 0.06
14526 C 144.8348080227437 25.611523978007483 157.97023000794633 C 0.0 **** -0.24
14527 H 145.24742061056378 26.58807102878791 158.22487065153666 H 0.0 **** 0.06
14528 H 145.43946843826438 25.15640342629871 157.1858243724899 H 0.0 **** 0.06
14529 H 143.81042145450056 25.72970444148791 157.61748694600607 H 0.0 **** 0.06
14530 H 144.84367379717872 24.97227666222426 158.85363275932804 H 0.0 **** 0.06
14531 C 38.43064905407512 203.6509606490216 1.0393942808881604 C 0.0 **** -0.24
14532 H 38.56164229008398 202.88292180134016 1.801027539562547 H 0.0 **** 0.06
14533 H 38.32095036141786 203.1787322750983 0.06256895601588042 H 0.0 **** 0.06
14534 H 39.30262629353018 204.30518190988278 1.0299402829835387 H 0.0 **** 0.06
14535 H 37.53870989334041 204.2364089366423 1.2623471261639736 H 0.0 **** 0.06
14536 C 45.144415822764685 51.123205040116034 1.5138369617880088 C 0.0 **** -0.24
14537 H 45.503539216532644 50.18973825717302 1.0795106967058459 H 0.0 **** 0.06
14538 H 44.92005601704031 50.96927494533287 2.5691138602070964 H 0.0 **** 0.06
14539 H 44.24261575418673 51.44276239724786 0.9923028249754893 H 0.0 **** 0.06
14540 H 45.913687739903125 51.889415203499766 1.4132593576850994 H 0.0 **** 0.06
14541 C 106.95380115136906 12.969847225333012 103.26057109451637 C 0.0 **** -0.24
14542 H 107.87660410116881 12.829264799003596 102.69649179349983 H 0.0 **** 0.06
14543 H 107.11585477666775 12.679467974726208 104.29806790463198 H 0.0 **** 0.06
14544 H 106.16673302215376 12.35197091950613 102.82857947041629 H 0.0 **** 0.06
14545 H 106.65841919134176 14.017944712572728 103.21723192394148 H 0.0 **** 0.06
14546 C 125.89030189015368 101.06250116394195 5.847653478153347 C 0.0 **** -0.24
14547 H 126.86530512092675 100.60238472428584 5.684452027921594 H 0.0 **** 0.06
14548 H 125.33667912920187 100.48537755204869 6.587375918697148 H 0.0 **** 0.06
14549 H 125.33541266129767 101.0794670926612 4.909179050398848 H 0.0 **** 0.06
14550 H 126.0257906893268 102.08184304057151 6.208506706631567 H 0.0 **** 0.06
14551 C 169.28200160907568 24.752104770780846 187.74865695731108 C 0.0 **** -0.24
14552 H 170.33782095362977 24.49039143526862 187.82174448433597 H 0.0 **** 0.06
14553 H 168.93827991092473 25.142582049832328 188.70639127408268 H 0.0 **** 0.06
14554 H 168.70468073637886 23.865970199633608 187.48857959239058 H 0.0 **** 0.06
14555 H 169.14947231226085 25.511910342334062 186.97805418956222 H 0.0 **** 0.06
14556 C 171.17353564277698 94.92472920262186 75.490270561829 C 0.0 **** -0.24
14557 H 172.12085835158143 94.3945089907824 75.58452202189419 H 0.0 **** 0.06
14558 H 170.70794391494638 95.01450718338039 76.47195299579495 H 0.0 **** 0.06
14559 H 170.5128971374717 94.37128637175594 74.82259478554907 H 0.0 **** 0.06
14560 H 171.35376380632275 95.91930639578517 75.08113101495859 H 0.0 **** 0.06
14561 C 155.5956106810056 89.77585492351066 70.57916986295488 C 0.0 **** -0.24
14562 H 154.5346083718104 89.82554183767162 70.8258365671931 H 0.0 **** 0.06
14563 H 155.75338508724712 89.02390055303842 69.80579672937377 H 0.0 **** 0.06
14564 H 156.163066671931 89.50542164572003 71.47045921081163 H 0.0 **** 0.06
14565 H 155.9300450423678 90.74788046789716 70.21624681245025 H 0.0 **** 0.06
14566 C 103.68557853330395 43.241926691750024 83.50395217885938 C 0.0 **** -0.24
14567 H 103.22932123251348 42.316328950136 83.8555133250976 H 0.0 **** 0.06
14568 H 104.44240354581348 43.01044231925337 82.7546851925602 H 0.0 **** 0.06
14569 H 104.15090659130362 43.7581211782946 84.34412489936966 H 0.0 **** 0.06
14570 H 102.91982718853927 43.8799462502045 83.06388395601113 H 0.0 **** 0.06
14571 C 5.630829331373974 186.74689600464214 203.5082436078464 C 0.0 **** -0.24
14572 H 5.502657456065904 186.12858546204035 204.3959902825141 H 0.0 **** 0.06
14573 H 4.654643088982034 186.96980528752846 203.07703482275735 H 0.0 **** 0.06
14574 H 6.237421507247888 186.2113838586297 202.77699957671922 H 0.0 **** 0.06
14575 H 6.12851070866347 187.67700401073222 203.78236306616577 H 0.0 **** 0.06
14576 C 129.86013709080487 212.11336827402772 198.18990125168028 C 0.0 **** -0.24
14577 H 129.46564545168428 212.79260200819033 198.94564394476583 H 0.0 **** 0.06
14578 H 129.1316326340468 211.32656958732366 197.9936712266951 H 0.0 **** 0.06
14579 H 130.78756027999475 211.6684672938072 198.55084651969906 H 0.0 **** 0.06
14580 H 130.05609522018796 212.665926956405 197.27080089976937 H 0.0 **** 0.06
14581 C 186.868999431409 55.41739515624408 28.720940379933026 C 0.0 **** -0.24
14582 H 187.74273056565386 55.75238199099768 29.27888557643439 H 0.0 **** 0.06
14583 H 186.2707613768131 54.75338517485683 29.345876482538557 H 0.0 **** 0.06
14584 H 187.19239580783238 54.88229316750137 27.827286192712748 H 0.0 **** 0.06
14585 H 186.27067981254856 56.28037163101773 28.429881343070903 H 0.0 **** 0.06
14586 C 159.94656525709107 75.51804078657591 177.32063945969966 C 0.0 **** -0.24
14587 H 159.55592073198645 76.49467151599964 177.0349291011678 H 0.0 **** 0.06
14588 H 160.66657489502936 75.18251239491599 176.57416510764833 H 0.0 **** 0.06
14589 H 159.12543204504513 74.80306858817988 177.38167353504042 H 0.0 **** 0.06
14590 H 160.43678001473742 75.59312793019166 178.29073869736658 H 0.0 **** 0.06
14591 C 167.58564662293276 86.90673111674867 16.51530968950324 C 0.0 **** -0.24
14592 H 168.04765908546875 87.88783701709134 16.626875094909025 H 0.0 **** 0.06
14593 H 168.120752203076 86.3374249607755 15.75502443912066 H 0.0 **** 0.06
14594 H 166.54509306676061 87.02865341351632 16.21340010337272 H 0.0 **** 0.06
14595 H 167.6281836543061 86.37568750949653 17.46607644284201 H 0.0 **** 0.06
14596 C 205.22798756606142 163.0912208127628 216.69659733242048 C 0.0 **** -0.24
14597 H 206.15555521937 162.52098165304784 216.7318345823545 H 0.0 **** 0.06
14598 H 204.7493233181884 163.066890791643 217.6766635346686 H 0.0 **** 0.06
14599 H 204.55938101978828 162.65307453713416 215.95530570885188 H 0.0 **** 0.06
14600 H 205.4460935158765 164.123507594101 216.42409059623563 H 0.0 **** 0.06
14601 C 28.04831935149508 82.28941587454726 170.4954217093825 C 0.0 **** -0.24
14602 H 27.43955026637697 82.00443318692699 169.63811885562512 H 0.0 **** 0.06
14603 H 27.94491593922855 81.53968417275796 171.2799695089202 H 0.0 **** 0.06
14604 H 27.7150802108371 83.25718169256363 170.8712024241703 H 0.0 **** 0.06
14605 H 29.09299604625096 82.3575662325522 170.19227114404015 H 0.0 **** 0.06
14606 C 43.37457184577437 39.98445939956076 191.47963214411996 C 0.0 **** -0.24
14607 H 42.29023829963472 40.07501998730302 191.5476445390296 H 0.0 **** 0.06
14608 H 43.832841745965425 40.953093196055306 191.6829433068188 H 0.0 **** 0.06
14609 H 43.65020620431244 39.6546043174651 190.47835473557416 H 0.0 **** 0.06
14610 H 43.72445687947334 39.2559937016365 192.21097906878714 H 0.0 **** 0.06
14611 C 111.81700313438627 40.93105331181363 179.9442960386126 C 0.0 **** -0.24
14612 H 112.18102582193869 41.940929039577725 180.13406073145802 H 0.0 **** 0.06
14613 H 112.25516395879127 40.55579052639388 179.01939059851742 H 0.0 **** 0.06
14614 H 110.73078017776281 40.94852984099367 179.85084332365028 H 0.0 **** 0.06
14615 H 112.1001895060222 40.28020047015474 180.7712332708509 H 0.0 **** 0.06
14616 C 203.35370906681828 156.0278362459805 190.83360621700757 C 0.0 **** -0.24
14617 H 203.59500496269058 156.25116983070433 189.79479606957395 H 0.0 **** 0.06
14618 H 204.26757399171174 156.0357053396542 191.4292068755091 H 0.0 **** 0.06
14619 H 202.8879007432539 155.04419235287492 190.8952944485341 H 0.0 **** 0.06
14620 H 202.6653935807509 156.78157597582026 191.2166236532479 H 0.0 **** 0.06
14621 C 124.60745063245524 86.09221718894116 181.9683826819334 C 0.0 **** -0.24
14622 H 124.87794308777855 85.34584022739949 181.2214071793249 H 0.0 **** 0.06
14623 H 124.40131048354068 85.59746055349825 182.9180353892774 H 0.0 **** 0.06
14624 H 123.7187806298097 86.63044852492152 181.63896988728808 H 0.0 **** 0.06
14625 H 125.43149926067234 86.79384378011133 182.09566627072383 H 0.0 **** 0.06
14626 C 85.7776046346821 185.47888366981647 205.8950973690635 C 0.0 **** -0.24
14627 H 85.82008248416783 184.39001844709387 205.93939542321368 H 0.0 **** 0.06
14628 H 85.10573949756842 185.84753857708537 206.67062102727664 H 0.0 **** 0.06
14629 H 85.40799474281924 185.78820281137772 204.91725262709605 H 0.0 **** 0.06
14630 H 86.77532097929985 185.88795127199614 206.05293564753538 H 0.0 **** 0.06
14631 C 23.45540707702284 52.00446350515884 26.17327407693763 C 0.0 **** -0.24
14632 H 24.40513221266552 52.46813363349226 26.439729163529094 H 0.0 **** 0.06
14633 H 23.57646235464597 51.42920773034734 25.254845219256126 H 0.0 **** 0.06
14634 H 22.703385843834113 52.778317799715666 26.020477722167726 H 0.0 **** 0.06
14635 H 23.136647896945718 51.34219485708003 26.978044202797534 H 0.0 **** 0.06
14636 C 119.61578844294502 75.94747393460375 124.66703422461494 C 0.0 **** -0.24
14637 H 119.70165779400736 76.97915745950303 125.00782256348275 H 0.0 **** 0.06
14638 H 120.54898013489822 75.42006839623866 124.86909320147653 H 0.0 **** 0.06
14639 H 119.41576365595688 75.93525924235439 123.59635500299605 H 0.0 **** 0.06
14640 H 118.79871601586467 75.45766687841149 125.19589225672625 H 0.0 **** 0.06
14641 C 24.494330596969235 155.09726821072127 214.19053591621355 C 0.0 **** -0.24
14642 H 25.00897729153121 154.22294184280622 213.79165206830555 H 0.0 **** 0.06
14643 H 23.547025920334903 155.22968962481605 213.66815813122238 H 0.0 **** 0.06
14644 H 25.115773399840492 155.980754599899 214.04647075995695 H 0.0 **** 0.06
14645 H 24.306677216018556 154.95380685313768 215.25381676088486 H 0.0 **** 0.06
14646 C 63.71718200513902 121.45837619341408 4.5747295618557615 C 0.0 **** -0.24
14647 H 62.82800460335531 120.90290502734506 4.871486118684281 H 0.0 **** 0.06
14648 H 63.52940259367605 121.96614480697436 3.627841980769368 H 0.0 **** 0.06
14649 H 64.55299775629072 120.76857106766586 4.457673782011106 H 0.0 **** 0.06
14650 H 63.95785942131238 122.19464651372904 5.341412370242978 H 0.0 **** 0.06
14651 C 51.343441083809466 105.1736013978974 160.61314462193096 C 0.0 **** -0.24
14652 H 51.421083321800154 105.51955719497825 159.58340515406564 H 0.0 **** 0.06
14653 H 50.49568605389402 104.49471506919575 160.70500809192063 H 0.0 **** 0.06
14654 H 51.19810897940124 106.02860086987324 161.27406794095612 H 0.0 **** 0.06
14655 H 52.25912941620953 104.65144908249802 160.89106363635057 H 0.0 **** 0.06
14656 C 89.56837701647932 146.40822274152714 54.276161151933366 C 0.0 **** -0.24
14657 H 88.57822041382751 146.43325902743322 54.73154805178467 H 0.0 **** 0.06
14658 H 89.81141568848788 145.38375483832442 53.99347959469472 H 0.0 **** 0.06
14659 H 90.30602616740968 146.77187075417407 54.99282008146503 H 0.0 **** 0.06
14660 H 89.5777369516265 147.0423992362734 53.39084727145513 H 0.0 **** 0.06
14661 C 132.47147100277465 86.79050146041696 214.04575873579597 C 0.0 **** -0.24
14662 H 133.26911329037642 87.52763928470652 214.1344420768163 H 0.0 **** 0.06
14663 H 132.33123465378674 86.28995994991907 215.00444852897695 H 0.0 **** 0.06
14664 H 132.7397950627028 86.05419272472211 213.28719113420053 H 0.0 **** 0.06
14665 H 131.5463075681726 87.28893291628633 213.75714856239918 H 0.0 **** 0.06
14666 C 156.76047113100714 145.29447430857937 51.28521357816281 C 0.0 **** -0.24
14667 H 157.5843345038171 144.5813365113313 51.325385406193305 H 0.0 **** 0.06
14668 H 155.83432228912903 144.7655117877149 51.05729882540503 H 0.0 **** 0.06
14669 H 156.95791225108917 146.03389687626975 50.50981858985533 H 0.0 **** 0.06
14670 H 156.66646264787346 145.79374056744217 52.24937421720148 H 0.0 **** 0.06
14671 C 118.49993066083726 17.45494504946194 66.8921835631809 C 0.0 **** -0.24
14672 H 119.064002225244 18.35496928582819 67.13735653212494 H 0.0 **** 0.06
14673 H 118.28588319079836 16.90141735468103 67.80532148990267 H 0.0 **** 0.06
14674 H 119.08743755212669 16.831806029509664 66.21718906853688 H 0.0 **** 0.06
14675 H 117.56449269799174 17.733561791363798 66.40647513868734 H 0.0 **** 0.06
14676 C 170.75161009646504 24.84374164768596 179.56172832241367 C 0.0 **** -0.24
14677 H 171.13129651844548 24.885120960607253 180.58193716687583 H 0.0 **** 0.06
14678 H 171.3007886411455 25.552636103171665 178.94071242705184 H 0.0 **** 0.06
14679 H 169.69230263383056 25.10186103317848 179.55757735848772 H 0.0 **** 0.06
14680 H 170.8817435256542 23.836820885080414 179.16582808759813 H 0.0 **** 0.06
14681 C 74.3774295740422 168.56719817842634 144.01255562084708 C 0.0 **** -0.24
14682 H 75.22112044534094 168.31293380566896 144.65506437494156 H 0.0 **** 0.06
14683 H 73.7514915466968 167.6868599798192 143.86988340035987 H 0.0 **** 0.06
14684 H 74.74690099182709 168.91132000584946 143.0470132029726 H 0.0 **** 0.06
14685 H 73.79222424338764 169.35899993628163 144.48004447792897 H 0.0 **** 0.06
14686 C 21.66458883210295 30.49529011915658 181.65424452697718 C 0.0 **** -0.24
14687 H 20.679492668939588 30.961852035108393 181.6257896828903 H 0.0 **** 0.06
14688 H 22.42509028709101 31.260689633894827 181.80978635855095 H 0.0 **** 0.06
14689 H 21.851715644314353 29.983289654414833 180.71025394444447 H 0.0 **** 0.06
14690 H 21.701208544113356 29.774801353445213 182.47119315911974 H 0.0 **** 0.06
14691 C 94.83076109806835 104.22226701441024 168.27058804509096 C 0.0 **** -0.24
14692 H 95.37733945496807 103.28785311226427 168.3981807440685 H 0.0 **** 0.06
14693 H 95.00992361089315 104.86765385128943 169.13117318356058 H 0.0 **** 0.06
14694 H 93.7646782966686 104.01153997866187 168.1896022230884 H 0.0 **** 0.06
14695 H 95.17315395509245 104.72119413141111 167.3637275223275 H 0.0 **** 0.06
14696 C 167.0933647888665 182.87284775301777 143.9686237037945 C 0.0 **** -0.24
14697 H 166.97033552156412 183.80319906120542 143.41349543736226 H 0.0 **** 0.06
14698 H 167.95970458457163 182.33379318797256 143.5850032219301 H 0.0 **** 0.06
14699 H 166.2000355611733 182.25853920765172 143.84963604235338 H 0.0 **** 0.06
14700 H 167.24220656874945 183.09755346275605 145.0241816529334 H 0.0 **** 0.06
14701 C 87.72907417080482 101.55534153466293 168.7207505257154 C 0.0 **** -0.24
14702 H 88.16805069285324 102.26465902184539 168.01994996018465 H 0.0 **** 0.06
14703 H 87.94328272536272 101.8727938163323 169.7412915007575 H 0.0 **** 0.06
14704 H 88.15437041995163 100.56663978335278 168.55058275091227 H 0.0 **** 0.06
14705 H 86.65059284505178 101.51727351712147 168.57117789100718 H 0.0 **** 0.06
14706 C 167.75125858793564 151.42833358073187 24.725953676723634 C 0.0 **** -0.24
14707 H 167.43651000960134 152.45835073155143 24.894737990819863 H 0.0 **** 0.06
14708 H 167.70929495291918 151.2057308510207 23.660101809895394 H 0.0 **** 0.06
14709 H 167.08847064175134 150.75202812961163 25.265742719715547 H 0.0 **** 0.06
14710 H 168.77303548128356 151.29771215455577 25.08399303196029 H 0.0 **** 0.06
14711 C 86.20350082301526 204.90082592966752 42.02562580620926 C 0.0 **** -0.24
14712 H 85.33564810057136 205.24771796664362 41.46501658570776 H 0.0 **** 0.06
14713 H 86.9583335560569 204.5295274938063 41.33213308008169 H 0.0 **** 0.06
14714 H 85.90232774376675 204.09840425018407 42.69960308597564 H 0.0 **** 0.06
14715 H 86.6159366961136 205.7272078880834 42.60444153246095 H 0.0 **** 0.06
14716 C 38.54606229618105 164.03741622036117 7.115155646711358 C 0.0 **** -0.24
14717 H 37.52498431622951 164.12692746735092 7.486630599726652 H 0.0 **** 0.06
14718 H 39.03338237130353 165.01194824618227 7.154317136464812 H 0.0 **** 0.06
14719 H 38.52716017727806 163.6819452365282 6.084411622245867 H 0.0 **** 0.06
14720 H 39.09717355726326 163.32972895696687 7.733584489100124 H 0.0 **** 0.06
14721 C 46.33930434487462 95.64929529471995 133.55186670361292 C 0.0 **** -0.24
14722 H 46.491359545284524 96.65446111708819 133.94488326751002 H 0.0 **** 0.06
14723 H 46.13243129954958 94.96485276810232 134.37574966884176 H 0.0 **** 0.06
14724 H 47.23795343099408 95.32469970914396 133.02688987574209 H 0.0 **** 0.06
14725 H 45.49585505939581 95.6533808647409 132.86128886490837 H 0.0 **** 0.06
14726 C 157.10325923583923 88.93397111033399 166.70227493114658 C 0.0 **** -0.24
14727 H 156.64800742731575 89.75125808141168 166.14273767800628 H 0.0 **** 0.06
14728 H 158.1749666174452 89.10968599556834 166.79456632509502 H 0.0 **** 0.06
14729 H 156.93280792939726 87.99456643509204 166.176305971788 H 0.0 **** 0.06
14730 H 156.65621817694205 88.88173926765622 167.69524284133857 H 0.0 **** 0.06
14731 C 45.837666830725595 206.0063059754942 192.90976204132056 C 0.0 **** -0.24
14732 H 46.811588184815434 205.54853477326435 192.73615368593076 H 0.0 **** 0.06
14733 H 45.250042057522364 205.96595206763493 191.99350563789824 H 0.0 **** 0.06
14734 H 45.973228414316736 207.04602339049333 193.21010670329824 H 0.0 **** 0.06
14735 H 45.31782003888503 205.4655639596063 193.70039186352074 H 0.0 **** 0.06
14736 C 111.84696186576944 7.73305316519361 78.7938913294396 C 0.0 **** -0.24
14737 H 111.54864894661709 6.684907834742859 78.77272758109451 H 0.0 **** 0.06
14738 H 112.77101464708595 7.859074266363308 78.23058833949524 H 0.0 **** 0.06
14739 H 112.00431711347274 8.044334676187091 79.82571847264417 H 0.0 **** 0.06
14740 H 111.06150999045938 8.342332968319099 78.34658649821667 H 0.0 **** 0.06
14741 C 120.31680697306844 97.86050202253573 118.5589856573671 C 0.0 **** -0.24
14742 H 119.58885728806199 97.80096059724882 117.74974390408245 H 0.0 **** 0.06
14743 H 121.26172510102687 98.24108612021227 118.16966235625286 H 0.0 **** 0.06
14744 H 120.47065870163671 96.8668333321446 118.98159462813915 H 0.0 **** 0.06
14745 H 119.94468504406943 98.53100896433425 119.33359449227764 H 0.0 **** 0.06
14746 C 91.55279498487191 17.450406067352276 15.363339713927928 C 0.0 **** -0.24
14747 H 92.00160412547983 17.472502623334066 14.37056419835153 H 0.0 **** 0.06
14748 H 90.47437391282627 17.321446741561573 15.271330909582446 H 0.0 **** 0.06
14749 H 91.76489414454274 18.386538875817394 15.878784599048117 H 0.0 **** 0.06
14750 H 91.97132713684452 16.62017379948209 15.93249203156472 H 0.0 **** 0.06
14751 C 117.87079241593146 111.19861187579966 79.47494551189732 C 0.0 **** -0.24
14752 H 118.1756217575806 110.39025036493553 78.80907172135716 H 0.0 **** 0.06
14753 H 118.66387154354591 111.94494775462567 79.5246385301046 H 0.0 **** 0.06
14754 H 117.68558568070019 110.79831574909309 80.47185103258579 H 0.0 **** 0.06
14755 H 116.96048533576395 111.66014405663736 79.09231226437055 H 0.0 **** 0.06
14756 C 39.935608425397035 182.61309452518086 79.66605368540706 C 0.0 **** -0.24
14757 H 39.438730256874464 183.52123367919518 80.00721566665698 H 0.0 **** 0.06
14758 H 40.05069558929485 182.64831137349887 78.58233330215586 H 0.0 **** 0.06
14759 H 39.335769435687325 181.745474691654 79.94040408743422 H 0.0 **** 0.06
14760 H 40.91742588485836 182.53873395813966 80.13453114875523 H 0.0 **** 0.06
14761 C 63.798709667645255 90.72214369668636 196.61071859975942 C 0.0 **** -0.24
14762 H 64.66378763784803 91.29214790542083 196.27239118756165 H 0.0 **** 0.06
14763 H 62.8967645078219 91.12020373621671 196.14482882133083 H 0.0 **** 0.06
14764 H 63.71323946001843 90.8003924576568 197.6945369016283 H 0.0 **** 0.06
14765 H 63.921047064892775 89.67583068745118 196.3311174885169 H 0.0 **** 0.06
14766 C 206.04629540141394 214.53982081900446 86.58582130443826 C 0.0 **** -0.24
14767 H 207.05126022445427 214.65535900876594 86.98968481989682 H 0.0 **** 0.06
14768 H 205.86991424687776 215.3015503504847 85.82609506885309 H 0.0 **** 0.06
14769 H 205.31721337646346 214.64919700803657 87.38784459846467 H 0.0 **** 0.06
14770 H 205.94703145680964 213.55076991920458 86.13788589162438 H 0.0 **** 0.06
14771 C 208.66075449094097 89.39295962382117 69.17765235148471 C 0.0 **** -0.24
14772 H 208.94833429639885 88.99998939166544 68.20255933749058 H 0.0 **** 0.06
14773 H 208.07634001285248 88.6440993217309 69.71251692094427 H 0.0 **** 0.06
14774 H 208.06184625800952 90.29375570338671 69.04410278834479 H 0.0 **** 0.06
14775 H 209.55531367625514 89.63317326015901 69.75046853044802 H 0.0 **** 0.06
14776 C 22.509294345560136 40.11875103635565 204.50876374806504 C 0.0 **** -0.24
14777 H 22.444030348448422 41.067292430793984 203.97545335477312 H 0.0 **** 0.06
14778 H 21.55061562571882 39.60312603297626 204.45183303662049 H 0.0 **** 0.06
14779 H 22.760351114028026 40.30634912446524 205.5522897789745 H 0.0 **** 0.06
14780 H 23.283157399732374 39.50019024318679 204.05342248339102 H 0.0 **** 0.06
14781 C 171.64710846736938 55.75375511617483 210.5094861778237 C 0.0 **** -0.24
14782 H 171.8850803201263 55.96068538065079 209.46616676494517 H 0.0 **** 0.06
14783 H 172.2801634607419 56.36498452583662 211.15350258909643 H 0.0 **** 0.06
14784 H 171.82468533333497 54.69915355379456 210.71912188696533 H 0.0 **** 0.06
14785 H 170.60038092571847 55.9899340189031 210.6976007549962 H 0.0 **** 0.06
14786 C 86.1442215650308 8.877976224530542 118.10698368349348 C 0.0 **** -0.24
14787 H 86.58932166634101 8.681877784721408 119.08186030076295 H 0.0 **** 0.06
14788 H 86.90219504686716 9.284557376497148 117.43704778090763 H 0.0 **** 0.06
14789 H 85.33227386575216 9.598216056362418 118.21686857072437 H 0.0 **** 0.06
14790 H 85.75198837323218 7.94901906058432 117.69344548366938 H 0.0 **** 0.06
14791 C 16.745676592581233 105.69496856273383 25.389330311950886 C 0.0 **** -0.24
14792 H 17.31013795578194 105.99646667520113 24.50711753180265 H 0.0 **** 0.06
14793 H 16.95132745080646 104.64779587715844 25.611067152666905 H 0.0 **** 0.06
14794 H 15.679990782431858 105.82545223143785 25.200878978698526 H 0.0 **** 0.06
14795 H 17.04265087754139 106.31189704140598 26.238119851344877 H 0.0 **** 0.06
14796 C 21.580663374814606 26.38693621941067 7.3195520005209005 C 0.0 **** -0.24
14797 H 21.839991236099323 25.92203656914694 6.368437648568758 H 0.0 **** 0.06
14798 H 22.37575986602711 27.070886878189043 7.618440312428376 H 0.0 **** 0.06
14799 H 21.45911947285167 25.615246147400057 8.079806992014213 H 0.0 **** 0.06
14800 H 20.64747467336008 26.939842771238034 7.2106101151691036 H 0.0 **** 0.06
14801 C 59.06659981588065 150.97613815703374 127.8549901393519 C 0.0 **** -0.24
14802 H 58.19550322018114 150.75144443223257 128.47129574946536 H 0.0 **** 0.06
14803 H 59.65462048944036 151.76195785749803 128.3301924534927 H 0.0 **** 0.06
14804 H 58.738841150958436 151.31150321554532 126.87133895068966 H 0.0 **** 0.06
14805 H 59.67633879061859 150.0791447505473 127.74901684222193 H 0.0 **** 0.06
14806 C 192.89612589750658 133.08212505317596 206.21360665869364 C 0.0 **** -0.24
14807 H 192.90218046175187 132.05920168167955 206.59009338592818 H 0.0 **** 0.06
14808 H 192.9489469700751 133.7772361835846 207.05186174902417 H 0.0 **** 0.06
14809 H 191.97841560256882 133.25758664783132 205.65280172870825 H 0.0 **** 0.06
14810 H 193.75600143997565 133.23332532992544 205.56044000498736 H 0.0 **** 0.06
14811 C 166.1355002233808 92.3149157901056 121.76100354003454 C 0.0 **** -0.24
14812 H 165.44629993937644 91.94595681401637 122.52018096894723 H 0.0 **** 0.06
14813 H 165.5888815978989 92.50717734325855 120.83746213869314 H 0.0 **** 0.06
14814 H 166.90670813015325 91.5662736931555 121.57816065314988 H 0.0 **** 0.06
14815 H 166.599880790474 93.23749750993056 122.10879484253384 H 0.0 **** 0.06
14816 C 34.06422926225389 201.3079387947352 65.66476209933829 C 0.0 **** -0.24
14817 H 35.08643053278695 200.93040249782905 65.67729345794127 H 0.0 **** 0.06
14818 H 33.431890094187565 200.62543827282985 65.09598677568255 H 0.0 **** 0.06
14819 H 34.046847570046 202.29358932085609 65.19910872724601 H 0.0 **** 0.06
14820 H 33.692591729999606 201.38121395572352 66.68689390803294 H 0.0 **** 0.06
14821 C 150.24317999095524 51.42028830760957 105.30436559840338 C 0.0 **** -0.24
14822 H 150.54647266706428 50.61649530593053 104.63368497694766 H 0.0 **** 0.06
14823 H 149.30351042399514 51.84859727610973 104.9554663722147 H 0.0 **** 0.06
14824 H 151.01283283680493 52.192240406073324 105.31659657064047 H 0.0 **** 0.06
14825 H 150.11062130332022 51.02237272279383 106.31108976140995 H 0.0 **** 0.06
14826 C 25.714886556878355 36.5014267266603 35.02260840273506 C 0.0 **** -0.24
14827 H 25.831403153190934 37.45126890267065 34.50141280742692 H 0.0 **** 0.06
14828 H 24.8419014494948 36.54897228031132 35.67436033171589 H 0.0 **** 0.06
14829 H 26.604621144881833 36.304063690703 35.62099568605599 H 0.0 **** 0.06
14830 H 25.582038238032737 35.70107297675105 34.29531319438037 H 0.0 **** 0.06
14831 C 200.17676375719617 117.50312508825114 216.60124446982087 C 0.0 **** -0.24
14832 H 200.31040909935405 118.53480365172085 216.27704640119725 H 0.0 **** 0.06
14833 H 199.78908986145535 117.48968882104548 217.62051949444418 H 0.0 **** 0.06
14834 H 201.13683887699642 116.98644354176848 216.57042066693245 H 0.0 **** 0.06
14835 H 199.47366637000277 117.00126653471774 215.93745371107576 H 0.0 **** 0.06
14836 C 119.1475544311106 25.96037454091646 143.12182666536847 C 0.0 **** -0.24
14837 H 118.53720237903671 25.05948675263261 143.06091937819554 H 0.0 **** 0.06
14838 H 118.75864070348068 26.610118869139967 143.90687671763607 H 0.0 **** 0.06
14839 H 119.11704634957694 26.48549969677603 142.16728648299932 H 0.0 **** 0.06
14840 H 120.17604318629587 25.686143371741935 143.3542944369998 H 0.0 **** 0.06
14841 C 26.516359799001293 208.6115501264606 185.59374693782445 C 0.0 **** -0.24
14842 H 27.05055081240735 209.52675240970615 185.33719501328858 H 0.0 **** 0.06
14843 H 25.814723943927874 208.3653417037935 184.79721278044806 H 0.0 **** 0.06
14844 H 25.97146855477547 208.7588110913394 186.52625317256343 H 0.0 **** 0.06
14845 H 27.229804567513213 207.79671783208943 185.71564864463625 H 0.0 **** 0.06
14846 C 139.74838653320705 82.36465648334739 8.028515978539616 C 0.0 **** -0.24
14847 H 139.4278477908838 83.38606731410987 7.826281099845801 H 0.0 **** 0.06
14848 H 138.8884301598007 81.69634185328373 7.975301854732578 H 0.0 **** 0.06
14849 H 140.18886529104736 82.3124463315409 9.024022731482205 H 0.0 **** 0.06
14850 H 140.48928428661452 82.06329806304977 7.288453314348658 H 0.0 **** 0.06
14851 C 21.61274621297764 102.455716596334 107.93276796368 C 0.0 **** -0.24
14852 H 20.628940640832525 102.86076632999884 107.69721237649348 H 0.0 **** 0.06
14853 H 21.505227427839372 101.43917283263697 108.31224739388917 H 0.0 **** 0.06
14854 H 22.090227560736594 103.07818047878725 108.69034597009089 H 0.0 **** 0.06
14855 H 22.22570526175673 102.44574835703243 107.0317302461864 H 0.0 **** 0.06
14856 C 66.62667967332311 118.33338780563487 202.87008339648904 C 0.0 **** -0.24
14857 H 67.48486839563219 118.96993708820538 203.0863292524707 H 0.0 **** 0.06
14858 H 66.58394020232066 118.13269173099103 201.8001658583955 H 0.0 **** 0.06
14859 H 65.71338145593859 118.83900834252829 203.1828762465118 H 0.0 **** 0.06
14860 H 66.72569751580977 117.39350477302493 203.414140844612 H 0.0 **** 0.06
14861 C 215.1829936400386 148.87561108026182 7.284150558292907 C 0.0 **** -0.24
14862 H 216.0734379126191 149.13846978932781 7.855751331129227 H 0.0 **** 0.06
14863 H 214.51340619358692 149.73505302443436 7.239447674843916 H 0.0 **** 0.06
14864 H 214.67329100880565 148.0425961728015 7.768062249174534 H 0.0 **** 0.06
14865 H 215.47240885644055 148.5867958766308 6.274015053546918 H 0.0 **** 0.06
14866 C 103.85920595464869 177.9390242320385 181.94104503575957 C 0.0 **** -0.24
14867 H 103.31440975743074 178.8220349673763 182.2756945362716 H 0.0 **** 0.06
14868 H 104.72252017606785 178.24824185274167 181.35017348633806 H 0.0 **** 0.06
14869 H 103.20415865833475 177.31809096990554 181.33033966340932 H 0.0 **** 0.06
14870 H 104.1955785016582 177.37025048434867 182.80670029897848 H 0.0 **** 0.06
14871 C 40.82385088787629 26.279823071451702 153.02410547818306 C 0.0 **** -0.24
14872 H 39.950422115510435 26.407846141149463 152.3841840602305 H 0.0 **** 0.06
14873 H 41.49825819100556 27.126281491905132 152.8912706816874 H 0.0 **** 0.06
14874 H 41.33962749509152 25.357663968067172 152.75467231148207 H 0.0 **** 0.06
14875 H 40.505928872934135 26.227424144547584 154.06501713064176 H 0.0 **** 0.06
14876 C 24.08645324022119 192.96738231393786 79.62861792191838 C 0.0 **** -0.24
14877 H 24.4682717600066 192.21386135389818 78.94008984716466 H 0.0 **** 0.06
14878 H 24.90150892624733 193.33761974688565 80.2511784598086 H 0.0 **** 0.06
14879 H 23.317450996450816 192.52440542513622 80.2618873515841 H 0.0 **** 0.06
14880 H 23.657616653916634 193.79390389804416 79.06135219738543 H 0.0 **** 0.06
14881 C 1.3660193488950156 135.8092434712409 28.128319283796714 C 0.0 **** -0.24
14882 H 0.7923752676979561 135.25068981782556 28.867206556936935 H 0.0 **** 0.06
14883 H 2.4210452212217035 135.54768300606992 28.214439444791537 H 0.0 **** 0.06
14884 H 1.240374256134487 136.87787447929435 28.303733716451205 H 0.0 **** 0.06
14885 H 1.0102826505258378 135.56072658177396 27.127897417007148 H 0.0 **** 0.06
14886 C 159.4440667689394 139.57904930686203 192.81779171071378 C 0.0 **** -0.24
14887 H 158.8671327505885 139.75070626190217 193.7264496016768 H 0.0 **** 0.06
14888 H 159.19725938097253 140.34380857212693 192.0814667054133 H 0.0 **** 0.06
14889 H 159.20394802911153 138.594950463111 192.4153608565031 H 0.0 **** 0.06
14890 H 160.50864198434274 139.62733279670135 193.0493483383656 H 0.0 **** 0.06
14891 C 182.62620832479703 146.84389336215958 37.46938542172785 C 0.0 **** -0.24
14892 H 182.54427219369757 146.92081499197968 38.55369657371844 H 0.0 **** 0.06
14893 H 183.60398766880465 147.206485330335 37.153006301763725 H 0.0 **** 0.06
14894 H 181.84611530032277 147.44442291248265 37.00222778516343 H 0.0 **** 0.06
14895 H 182.51074096507992 145.80212231329045 37.17000187217715 H 0.0 **** 0.06
14896 C 31.903277160224775 168.08008817987303 18.451171367961223 C 0.0 **** -0.24
14897 H 31.129938218170253 167.93088488888452 17.698188378984483 H 0.0 **** 0.06
14898 H 31.652261763286333 167.51121192735246 19.34711178864883 H 0.0 **** 0.06
14899 H 31.967991196960213 169.1393209689054 18.69932277864561 H 0.0 **** 0.06
14900 H 32.86206191966835 167.73935826167852 18.060360615175398 H 0.0 **** 0.06
14901 C 51.784413303544596 111.67175774123812 73.55651568172608 C 0.0 **** -0.24
14902 H 52.57307686201062 110.91912925226772 73.57845422484336 H 0.0 **** 0.06
14903 H 52.08750620931134 112.53296122902533 74.15168908006582 H 0.0 **** 0.06
14904 H 50.867881732443806 111.24971179789237 73.96759745126623 H 0.0 **** 0.06
14905 H 51.61075097347677 111.9847185416992 72.52680597783824 H 0.0 **** 0.06
14906 C 165.07845870174938 33.96061279972946 115.62358601877322 C 0.0 **** -0.24
14907 H 165.11947920922708 32.87219086700101 115.5729879497717 H 0.0 **** 0.06
14908 H 164.9448892930429 34.36461821151917 114.61985697950901 H 0.0 **** 0.06
14909 H 166.0079518800709 34.339340712525996 116.04793460821837 H 0.0 **** 0.06
14910 H 164.2409127704991 34.26348479164649 116.25225883670767 H 0.0 **** 0.06
14911 C 120.45077740536918 206.0136812929412 84.86391889003023 C 0.0 **** -0.24
14912 H 119.8489659519524 205.11046091795026 84.96499345188342 H 0.0 **** 0.06
14913 H 121.0550398529861 206.14993941239186 85.76167653131257 H 0.0 **** 0.06
14914 H 119.7945321748107 206.8741894957164 84.73340081433663 H 0.0 **** 0.06
14915 H 121.10461682517804 205.919288587575 83.99673657221034 H 0.0 **** 0.06
14916 C 9.613935334151833 152.95867646955526 71.69790728996315 C 0.0 **** -0.24
14917 H 10.139320476770322 153.84101765902255 72.06530576337053 H 0.0 **** 0.06
14918 H 8.859808164341032 153.261841946667 70.97188935946531 H 0.0 **** 0.06
14919 H 9.132092504862356 152.44982918617342 72.53285164073264 H 0.0 **** 0.06
14920 H 10.326533587828408 152.28440532214768 71.22207507370251 H 0.0 **** 0.06
14921 C 106.06516815344092 67.36158224284318 166.7595640491998 C 0.0 **** -0.24
14922 H 106.41309757946534 66.32976341507087 166.71180260188217 H 0.0 **** 0.06
14923 H 105.25909629693298 67.50674130619319 166.04132236197734 H 0.0 **** 0.06
14924 H 106.88975494655902 68.03360548143986 166.52254186060372 H 0.0 **** 0.06
14925 H 105.70044332960559 67.57458803665887 167.7644289516274 H 0.0 **** 0.06
14926 C 135.84662621499137 141.03005535865566 24.779438366989325 C 0.0 **** -0.24
14927 H 135.25804931432748 141.90234422022803 24.498092524816343 H 0.0 **** 0.06
14928 H 136.27529550872396 140.57722447623598 23.885416015494513 H 0.0 **** 0.06
14929 H 135.20532115465056 140.30648080064356 25.282467005638523 H 0.0 **** 0.06
14930 H 136.64774016731485 141.3346256097638 25.453113762846897 H 0.0 **** 0.06
14931 C 45.51131587143904 201.20595678740546 98.18716357644952 C 0.0 **** -0.24
14932 H 45.96350087081602 201.24218411051947 97.1958329297237 H 0.0 **** 0.06
14933 H 46.001587620752176 200.43441119640005 98.78175349215009 H 0.0 **** 0.06
14934 H 44.45041084196011 200.974773646436 98.09426039116265 H 0.0 **** 0.06
14935 H 45.631158590244624 202.1726110368815 98.67662800387258 H 0.0 **** 0.06
14936 C 76.48090995788478 11.578773682065503 140.2333054497816 C 0.0 **** -0.24
14937 H 75.87538156463138 10.847555974803583 139.69842027043302 H 0.0 **** 0.06
14938 H 77.21977953241331 12.005194005430837 139.55447586566055 H 0.0 **** 0.06
14939 H 76.9905301797027 11.089192404342725 141.06451876550216 H 0.0 **** 0.06
14940 H 75.83986485592438 12.371322002530405 140.61753253095543 H 0.0 **** 0.06
14941 C 126.71720586512778 47.34818563620752 190.64887665397234 C 0.0 **** -0.24
14942 H 126.91677946035306 46.5101611421984 191.31727734013978 H 0.0 **** 0.06
14943 H 127.64357618942172 47.88970057565905 190.45884844749656 H 0.0 **** 0.06
14944 H 125.9925222588512 48.017691768232794 191.11158642965358 H 0.0 **** 0.06
14945 H 126.31554260613761 46.97287186397165 189.7071100413647 H 0.0 **** 0.06
14946 C 202.14283222962533 211.55325576200843 162.41844131681032 C 0.0 **** -0.24
14947 H 203.0467280225536 212.11727388985912 162.6504630797651 H 0.0 **** 0.06
14948 H 202.2926015167437 210.98993337048898 161.49665923667087 H 0.0 **** 0.06
14949 H 201.3078273353532 212.24273501129645 162.2915778536469 H 0.0 **** 0.06
14950 H 201.9246320170936 210.86449780698885 163.23418163819372 H 0.0 **** 0.06
14951 C 60.8478600941167 196.36775125855917 193.63030794668 C 0.0 **** -0.24
14952 H 60.15743922893802 195.68435776495693 193.13613237530106 H 0.0 **** 0.06
14953 H 60.919616283622815 196.1099326117278 194.6870362630048 H 0.0 **** 0.06
14954 H 60.48281432749752 197.3898271068511 193.5287811668996 H 0.0 **** 0.06
14955 H 61.83192470185412 196.28661464037918 193.1679402957496 H 0.0 **** 0.06
14956 C 7.1675190422488555 164.82019111049274 159.15847471392755 C 0.0 **** -0.24
14957 H 6.692317208254238 165.72939605250832 159.52680978923075 H 0.0 **** 0.06
14958 H 6.409299953044098 164.05013433805607 159.00914771737837 H 0.0 **** 0.06
14959 H 7.900050852632475 164.47334766593818 159.8871659413175 H 0.0 **** 0.06
14960 H 7.665834198267731 165.02770721527344 158.21230602758908 H 0.0 **** 0.06
14961 C 161.5653082310543 185.11019510755787 125.1999613701672 C 0.0 **** -0.24
14962 H 160.7656044715671 185.7553725292543 124.83773200995039 H 0.0 **** 0.06
14963 H 161.85150205631226 185.41575698726444 126.20574969187443 H 0.0 **** 0.06
14964 H 162.42651107160535 185.1925222171116 124.53594324347814 H 0.0 **** 0.06
14965 H 161.2183574933148 184.0765639813364 125.21756914359953 H 0.0 **** 0.06
14966 C 55.80866622235567 168.22668833928597 50.99723971478318 C 0.0 **** -0.24
14967 H 55.18463740203464 168.5699251354422 50.172260524168735 H 0.0 **** 0.06
14968 H 55.58580916989706 167.18112784365843 51.21116523847968 H 0.0 **** 0.06
14969 H 55.60586809473983 168.83062219788872 51.88155523919187 H 0.0 **** 0.06
14970 H 56.85858499274735 168.3262385143969 50.72320420272331 H 0.0 **** 0.06
14971 C 189.4527066716998 138.78423643921184 65.53601474821558 C 0.0 **** -0.24
14972 H 188.48282977848245 138.73614017088465 66.03089927409331 H 0.0 **** 0.06
14973 H 189.83983325969746 139.80179712719138 65.59176771167414 H 0.0 **** 0.06
14974 H 189.34255733641487 138.49343357394775 64.49159627648363 H 0.0 **** 0.06
14975 H 190.14633747136293 138.10413916082354 66.03164077927553 H 0.0 **** 0.06
14976 C 165.19443654106783 156.01049713393604 34.040109262357305 C 0.0 **** -0.24
14977 H 165.55397507259897 156.79748823662243 33.37692890161958 H 0.0 **** 0.06
14978 H 164.10784933704184 156.0629085587829 34.1106105539198 H 0.0 **** 0.06
14979 H 165.6297713013376 156.14359277468742 35.03093838401827 H 0.0 **** 0.06
14980 H 165.48656573619292 155.0384419496727 33.64275376774765 H 0.0 **** 0.06
14981 C 177.78456050760553 152.74949245829657 148.89049124930017 C 0.0 **** -0.24
14982 H 177.36094734597867 152.37149157316014 147.9595576472109 H 0.0 **** 0.06
14983 H 177.71628104721572 151.97901134389264 149.6592531920116 H 0.0 **** 0.06
14984 H 177.2314366986932 153.6320631446809 149.2097296397975 H 0.0 **** 0.06
14985 H 178.8305706394886 153.01327729295758 148.73272398315862 H 0.0 **** 0.06
14986 C 203.2297754925344 78.53387045969635 114.03702174071437 C 0.0 **** -0.24
14987 H 203.075406520461 77.77780640529363 113.26635804979487 H 0.0 **** 0.06
14988 H 202.6229111900501 79.41015757918734 113.81192683251463 H 0.0 **** 0.06
14989 H 204.2825102123194 78.81698605302893 114.06142097115752 H 0.0 **** 0.06
14990 H 202.93908101207077 78.12815627843406 115.00645604612156 H 0.0 **** 0.06
14991 C 14.451164893229432 155.34853301109996 67.12086190486747 C 0.0 **** -0.24
14992 H 14.83025729119916 155.5565685662457 66.12028891960938 H 0.0 **** 0.06
14993 H 13.766454521429097 154.50135101479333 67.08079309693977 H 0.0 **** 0.06
14994 H 13.924503918951885 156.22450878236555 67.49886295553546 H 0.0 **** 0.06
14995 H 15.285027116693996 155.1114356649074 67.78285344990468 H 0.0 **** 0.06
14996 C 122.19662855311951 106.24363969211548 58.520241486564885 C 0.0 **** -0.24
14997 H 122.19430419439827 107.33108099768195 58.58541907924126 H 0.0 **** 0.06
14998 H 123.21712760451733 105.87531256271124 58.63178955975019 H 0.0 **** 0.06
14999 H 121.80307849281424 105.93642702408043 57.551170350032294 H 0.0 **** 0.06
15000 H 121.5719820146381 105.83074095595508 59.31251572998508 H 0.0 **** 0.06
15001 C 54.858553175432434 105.46557634468617 75.84367739614093 C 0.0 **** -0.24
15002 H 54.75977208142852 104.51953677758472 75.31017801367427 H 0.0 **** 0.06
15003 H 53.903209716487964 105.98956963246066 75.83290548823565 H 0.0 **** 0.06
15004 H 55.61629333283622 106.07944095104482 75.35542207619658 H 0.0 **** 0.06
15005 H 55.15643751104804 105.27270521499291 76.87382872986707 H 0.0 **** 0.06
15006 C 55.95876106384708 146.46901682171875 15.61706406579809 C 0.0 **** -0.24
15007 H 55.60583847961931 145.52849712325138 15.194563799375103 H 0.0 **** 0.06
15008 H 56.21019458388463 147.15853830607358 14.809690865176137 H 0.0 **** 0.06
15009 H 56.84460861379273 146.28448994216035 16.225087989546935 H 0.0 **** 0.06
15010 H 55.17624401509613 146.90596718251174 16.237308037862306 H 0.0 **** 0.06
15011 C 39.630382235816114 16.44144760373115 67.9706976044952 C 0.0 **** -0.24
15012 H 38.98701164591375 15.561810443213062 67.94582010468068 H 0.0 **** 0.06
15013 H 40.094269512804715 16.579089815986663 66.99423544749455 H 0.0 **** 0.06
15014 H 40.40428670343101 16.303467602965213 68.72481928347729 H 0.0 **** 0.06
15015 H 39.03428536444443 17.31995332845736 68.21773272081214 H 0.0 **** 0.06
15016 C 1.6955532803859796 171.01766559527252 106.71142361782974 C 0.0 **** -0.24
15017 H 2.349128951696457 170.3340777125844 107.25228918920946 H 0.0 **** 0.06
15018 H 2.2554050463138537 171.49548153274347 105.9068373367678 H 0.0 **** 0.06
15019 H 1.3200741400226548 171.77939569640967 107.3951661244211 H 0.0 **** 0.06
15020 H 0.8568708318845211 170.46261494107267 106.29060338750757 H 0.0 **** 0.06
15021 C 129.15998334677414 36.18178178337335 133.24622310714847 C 0.0 **** -0.24
15022 H 129.59391725764783 36.65848483534235 132.36725115169804 H 0.0 **** 0.06
15023 H 128.19883279014823 36.64359080776707 133.4726611193687 H 0.0 **** 0.06
15024 H 129.831779469203 36.307044056065095 134.09514976027071 H 0.0 **** 0.06
15025 H 129.01671794971202 35.12003367430569 133.04942094887684 H 0.0 **** 0.06
15026 C 21.58984784264632 93.70778870109056 209.55943316927625 C 0.0 **** -0.24
15027 H 20.89018470191553 93.98462243403658 210.34806788230674 H 0.0 **** 0.06
15028 H 22.41972540625565 94.41535177621104 209.5456532913372 H 0.0 **** 0.06
15029 H 21.07876289469354 93.72810626115024 208.59735963040387 H 0.0 **** 0.06
15030 H 21.970855676926107 92.70463742990806 209.74853282383287 H 0.0 **** 0.06
15031 C 132.7905144708846 144.88156613271332 75.6218405126482 C 0.0 **** -0.24
15032 H 131.82699002030273 145.2166548672198 76.0042032838844 H 0.0 **** 0.06
15033 H 133.23637656289048 145.67306505701623 75.01800807357331 H 0.0 **** 0.06
15034 H 132.64854820589545 143.9921973439936 75.00819495781825 H 0.0 **** 0.06
15035 H 133.45039911409185 144.64656822713476 76.45699880883414 H 0.0 **** 0.06
15036 C 162.60981010644164 42.07095592505165 82.09165657975159 C 0.0 **** -0.24
15037 H 163.0137028225392 43.05717636667261 82.31720264186613 H 0.0 **** 0.06
15038 H 162.68014487866355 41.8869953319776 81.01887482986614 H 0.0 **** 0.06
15039 H 161.5657896711786 42.02528291342797 82.40092901117934 H 0.0 **** 0.06
15040 H 163.1817397321306 41.31376506866573 82.62858549276653 H 0.0 **** 0.06
15041 C 165.0431020395905 79.26233018379197 146.99951865622404 C 0.0 **** -0.24
15042 H 165.7997989010221 80.04672512434728 146.98063544093623 H 0.0 **** 0.06
15043 H 165.50157544287867 78.30969183686001 146.73549508979556 H 0.0 **** 0.06
15044 H 164.25716312999253 79.4991008461309 146.2815744807005 H 0.0 **** 0.06
15045 H 164.61370272355936 79.19590256911714 147.99961902679928 H 0.0 **** 0.06
15046 C 184.33264781402045 207.39602512138865 4.162645995142633 C 0.0 **** -0.24
15047 H 185.12565631223856 206.8011680247484 3.7092315088554386 H 0.0 **** 0.06
15048 H 184.75423791785474 208.31972401127538 4.5605609383515 H 0.0 **** 0.06
15049 H 183.87033283293954 206.83056683630696 4.971300996286054 H 0.0 **** 0.06
15050 H 183.58131044195204 207.63397492328545 3.4100623308688327 H 0.0 **** 0.06
15051 C 89.2005048738368 94.58129867053047 153.3427849403626 C 0.0 **** -0.24
15052 H 88.40622818138542 93.8346278864605 153.33805017478403 H 0.0 **** 0.06
15053 H 89.26531416573404 95.04860124989624 152.35984587689666 H 0.0 **** 0.06
15054 H 90.14986569025338 94.10013611222725 153.57903010558283 H 0.0 **** 0.06
15055 H 88.98057367519907 95.34083671024264 154.09320707211168 H 0.0 **** 0.06
15056 C 3.446297899986348 184.14110950509294 105.26191505556085 C 0.0 **** -0.24
15057 H 4.459917859183179 184.4688490024833 105.49463710438664 H 0.0 **** 0.06
15058 H 3.1747995299268723 183.30987736077287 105.91328891768933 H 0.0 **** 0.06
15059 H 3.398770800134457 183.81929949897994 104.22126831307105 H 0.0 **** 0.06
15060 H 2.7525178079839066 184.96737472452958 105.41910640009445 H 0.0 **** 0.06
15061 C 10.905361864444728 158.40559094359423 44.66920423942361 C 0.0 **** -0.24
15062 H 11.825899944013955 158.9862977718067 44.72501063686724 H 0.0 **** 0.06
15063 H 10.462440615004652 158.32996796124002 45.66245852404626 H 0.0 **** 0.06
15064 H 11.127944591102619 157.40726903884735 44.29320366513332 H 0.0 **** 0.06
15065 H 10.204497001617554 158.89930039671532 43.99556519097797 H 0.0 **** 0.06
15066 C 82.81833793252792 37.71138010020414 109.33787379258827 C 0.0 **** -0.24
15067 H 82.780602141283 38.77760207662266 109.11398353279996 H 0.0 **** 0.06
15068 H 83.82857015743872 37.4411361604723 109.64424153011556 H 0.0 **** 0.06
15069 H 82.54457605993974 37.144044716273015 108.4477585454626 H 0.0 **** 0.06
15070 H 82.11953376403892 37.48457216789757 110.1431389877986 H 0.0 **** 0.06
15071 C 10.114727157888979 63.93613304181116 189.57802097013587 C 0.0 **** -0.24
15072 H 10.015479679864086 63.24749853493108 190.41668751846612 H 0.0 **** 0.06
15073 H 9.156564566947452 64.42107139855898 189.39019822608995 H 0.0 **** 0.06
15074 H 10.423097632078793 63.384192330413384 188.68908943768398 H 0.0 **** 0.06
15075 H 10.865360819596049 64.69127615613769 189.814315582018 H 0.0 **** 0.06
15076 C 81.95459921002019 101.65439337818036 182.97199327502238 C 0.0 **** -0.24
15077 H 82.76462739671852 101.39609862855976 183.6547775102656 H 0.0 **** 0.06
15078 H 81.76997820066084 102.72730453457307 183.01708047616953 H 0.0 **** 0.06
15079 H 81.05146132839111 101.11714533817714 183.26122094363313 H 0.0 **** 0.06
15080 H 82.23383835674984 101.37459902747976 181.9558103337124 H 0.0 **** 0.06
15081 C 79.52332993584747 75.79155880501104 143.53513185424896 C 0.0 **** -0.24
15082 H 80.47236118765505 76.23396210486975 143.83921926388496 H 0.0 **** 0.06
15083 H 79.69850938632527 75.0740959503902 142.73342969625884 H 0.0 **** 0.06
15084 H 78.8537742554318 76.57515008769643 143.1816123844648 H 0.0 **** 0.06
15085 H 79.07106699850999 75.28345987043856 144.38596486946665 H 0.0 **** 0.06
15086 C 100.69017723875994 187.58702572766083 108.2652603580856 C 0.0 **** -0.24
15087 H 100.95922724178358 187.36998127152538 107.23171794005087 H 0.0 **** 0.06
15088 H 99.69859505518208 188.04076017153264 108.29497561276476 H 0.0 **** 0.06
15089 H 101.41867936636926 188.27506140175532 108.69350875303716 H 0.0 **** 0.06
15090 H 100.6831146256303 186.6614412438496 108.84057732589112 H 0.0 **** 0.06
15091 C 187.6438738392115 44.591903349969215 50.61989016504725 C 0.0 **** -0.24
15092 H 186.69331988757958 44.09278424301232 50.42890205937596 H 0.0 **** 0.06
15093 H 188.31114676242933 43.91137814800467 51.14835721637672 H 0.0 **** 0.06
15094 H 187.47081892143444 45.47921063560875 51.229905685027575 H 0.0 **** 0.06
15095 H 188.09746259246486 44.88454615836514 49.6735617092574 H 0.0 **** 0.06
15096 C 3.732065508736241 69.43001043044691 95.79448783053614 C 0.0 **** -0.24
15097 H 3.8817042763103586 68.4405584467697 95.36304242429209 H 0.0 **** 0.06
15098 H 3.779070081967234 70.18072692349097 95.00534623293849 H 0.0 **** 0.06
15099 H 4.511182022690832 69.6273709779262 96.53062260397819 H 0.0 **** 0.06
15100 H 2.7561427679773374 69.47173304885968 96.2780166937202 H 0.0 **** 0.06
15101 C 111.50150457296121 38.988794409463424 45.85104112926541 C 0.0 **** -0.24
15102 H 110.49368557392842 38.57568202870992 45.81638346692097 H 0.0 **** 0.06
15103 H 111.55137001062798 39.87773735885558 45.22191712375951 H 0.0 **** 0.06
15104 H 112.2124961405404 38.24623650450448 45.48949877075353 H 0.0 **** 0.06
15105 H 111.74807578491345 39.25751471390369 46.878573213636344 H 0.0 **** 0.06
15106 C 209.78653301345938 114.00846510568458 158.46843002388 C 0.0 **** -0.24
15107 H 208.91054344364898 113.86945733001518 159.10132751473589 H 0.0 **** 0.06
15108 H 210.28718891983564 113.04951098923338 158.32667022484344 H 0.0 **** 0.06
15109 H 210.47121994525094 114.70975162534536 158.9449593013239 H 0.0 **** 0.06
15110 H 209.47680294388567 114.40294463306547 157.5009537637594 H 0.0 **** 0.06
15111 C 12.14289051081812 203.8906997874671 201.9867780523187 C 0.0 **** -0.24
15112 H 13.019107362580826 204.32965975102277 201.5092141061972 H 0.0 **** 0.06
15113 H 12.178951836702765 202.80656217967692 201.88504140104646 H 0.0 **** 0.06
15114 H 11.239910785157662 204.2713567050236 201.50926672681265 H 0.0 **** 0.06
15115 H 12.134482959470176 204.15738129674924 203.04432306203637 H 0.0 **** 0.06
15116 C 26.078977319421924 191.32182393370118 141.54171733792026 C 0.0 **** -0.24
15117 H 26.573308471474462 191.12281322867318 142.49248575615763 H 0.0 **** 0.06
15118 H 26.688067582359423 190.93163790838753 140.72684677184276 H 0.0 **** 0.06
15119 H 25.950922992829646 192.39757908933046 141.41752761354786 H 0.0 **** 0.06
15120 H 25.10250394906363 190.83679246425783 141.53121113809146 H 0.0 **** 0.06
15121 C 12.27063643754795 85.65212044233374 27.117370739793216 C 0.0 **** -0.24
15122 H 11.728972942336725 86.33057496696279 26.458726493920494 H 0.0 **** 0.06
15123 H 12.655162931789647 84.81236433425175 26.53823932412267 H 0.0 **** 0.06
15124 H 11.596771565289316 85.28179226689446 27.89061347702176 H 0.0 **** 0.06
15125 H 13.100226467177606 86.18368311918675 27.583636373661918 H 0.0 **** 0.06
15126 C 116.10807252152269 185.88491212364798 61.34435431938522 C 0.0 **** -0.24
15127 H 115.74597393647697 184.91336217855445 61.00954028295166 H 0.0 **** 0.06
15128 H 117.19878455247995 185.87506472788374 61.37325887025747 H 0.0 **** 0.06
15129 H 115.72052073753223 186.09321822621592 62.34111622796934 H 0.0 **** 0.06
15130 H 115.76996396085796 186.65693194886654 60.653139354655934 H 0.0 **** 0.06
15131 C 75.59308929181749 200.97541757105307 32.584152619596 C 0.0 **** -0.24
15132 H 75.14742613468344 201.88506913944187 32.987138373123244 H 0.0 **** 0.06
15133 H 74.80419600094298 200.26201800519172 32.34268917097762 H 0.0 **** 0.06
15134 H 76.26233776283247 200.53912759543078 33.32609580365998 H 0.0 **** 0.06
15135 H 76.15551114272215 201.21524645958058 31.681962563620488 H 0.0 **** 0.06
15136 C 56.11390950325881 123.00497890599603 200.96388584143955 C 0.0 **** -0.24
15137 H 55.639161284515694 123.81695966151652 200.4128327383193 H 0.0 **** 0.06
15138 H 55.81609780574746 122.04960677311543 200.53033141677744 H 0.0 **** 0.06
15139 H 55.80176475180531 123.0436553811722 202.0079892547434 H 0.0 **** 0.06
15140 H 57.19698771573127 123.10961788538891 200.90379925299555 H 0.0 **** 0.06
15141 C 25.04550990751541 41.93748636572941 96.52909316917332 C 0.0 **** -0.24
15142 H 25.839973059948036 41.33019405965665 96.96329991485884 H 0.0 **** 0.06
15143 H 25.131973576587043 42.961703090808754 96.89330916058354 H 0.0 **** 0.06
15144 H 24.077190710403485 41.529404389840394 96.81816091877543 H 0.0 **** 0.06
15145 H 25.134038307109563 41.92895129448492 95.44321979095322 H 0.0 **** 0.06
15146 C 24.567699669577806 87.94434708888683 93.28471732466973 C 0.0 **** -0.24
15147 H 25.553417475526786 87.4834460994801 93.35768885029391 H 0.0 **** 0.06
15148 H 24.566120200689355 88.66962202965529 92.47044285091052 H 0.0 **** 0.06
15149 H 24.332658383207004 88.44861385175408 94.22175027661815 H 0.0 **** 0.06
15150 H 23.821695420086712 87.17506709212107 93.08914877695783 H 0.0 **** 0.06
15151 C 4.232543280750278 176.047156068799 37.79985743164946 C 0.0 **** -0.24
15152 H 4.468466829393989 176.06317683648757 38.86318124166934 H 0.0 **** 0.06
15153 H 4.230450870706115 175.01617023538373 37.44440140086277 H 0.0 **** 0.06
15154 H 4.982127256505208 176.61952742078643 37.25282082768018 H 0.0 **** 0.06
15155 H 3.249128166395842 176.48974978253847 37.63902625638556 H 0.0 **** 0.06
15156 C 164.3849502731828 100.02600845096045 80.31809104821934 C 0.0 **** -0.24
15157 H 164.41254210136668 100.0052429309503 81.40710004929696 H 0.0 **** 0.06
15158 H 163.49530507361908 100.56300692244504 79.98663030500836 H 0.0 **** 0.06
15159 H 164.3573869896982 99.00618802211225 79.93571469386444 H 0.0 **** 0.06
15160 H 165.27533164601687 100.5313465681261 79.94232708513164 H 0.0 **** 0.06
15161 C 23.26010955834235 51.19789988174317 31.206336997966986 C 0.0 **** -0.24
15162 H 24.26174242674304 51.04326254920426 30.806587063658313 H 0.0 **** 0.06
15163 H 22.839502784332467 52.1123231964506 30.787237856505882 H 0.0 **** 0.06
15164 H 23.311117332123672 51.28500366379946 32.29190886762511 H 0.0 **** 0.06
15165 H 22.62723576142872 50.35052982863381 30.939361500210197 H 0.0 **** 0.06
15166 C 63.5577875439557 46.038060684611025 101.67431386026139 C 0.0 **** -0.24
15167 H 64.56620457660358 45.65477885983904 101.52062503070543 H 0.0 **** 0.06
15168 H 63.472486946166995 47.026630398789905 101.22378877217092 H 0.0 **** 0.06
15169 H 63.3541557292162 46.10662256267955 102.74242268958012 H 0.0 **** 0.06
15170 H 62.83861985258652 45.36290737126319 101.20997133466734 H 0.0 **** 0.06
15171 C 6.751314892931404 53.13340181258931 29.495489438241293 C 0.0 **** -0.24
15172 H 6.267343340336893 52.15932187206771 29.419043666609298 H 0.0 **** 0.06
15173 H 6.027223314014478 53.87153474145974 29.841721032636542 H 0.0 **** 0.06
15174 H 7.132540154852919 53.427285006341506 28.51768265786967 H 0.0 **** 0.06
15175 H 7.577065946591588 53.07367355284765 30.204289737628898 H 0.0 **** 0.06
15176 C 151.49952285340538 162.5813181455866 88.05526594002112 C 0.0 **** -0.24
15177 H 151.71367963795456 163.3857942577314 87.3514590075892 H 0.0 **** 0.06
15178 H 150.7633650782903 162.92292071799494 88.78304169689943 H 0.0 **** 0.06
15179 H 152.4160566409949 162.29730094683805 88.57152766514668 H 0.0 **** 0.06
15180 H 151.105821838368 161.7211079431632 87.51409678866236 H 0.0 **** 0.06
15181 C 64.07188817713478 159.55907747704455 85.36752062498216 C 0.0 **** -0.24
15182 H 64.91410686986654 159.3665606672283 86.0326492590704 H 0.0 **** 0.06
15183 H 63.34193595379793 158.7563617786414 85.46554293681906 H 0.0 **** 0.06
15184 H 64.42622796571578 159.60552436095864 84.3384287365477 H 0.0 **** 0.06
15185 H 63.60784785584542 160.5083928867494 85.63492288501008 H 0.0 **** 0.06
15186 C 159.94896095813678 46.7526876185204 62.09318649373165 C 0.0 **** -0.24
15187 H 160.47915480739573 46.22848799340886 61.29817997242924 H 0.0 **** 0.06
15188 H 159.3979113040914 47.592364803023386 61.67051211693615 H 0.0 **** 0.06
15189 H 160.6661754201322 47.12051127964196 62.826760826525174 H 0.0 **** 0.06
15190 H 159.2526697232857 46.068170737115295 62.57801254268307 H 0.0 **** 0.06
15191 C 131.8718306253234 71.10300558085828 8.995644870168832 C 0.0 **** -0.24
15192 H 131.72595953176364 71.41126848139021 7.960555628461492 H 0.0 **** 0.06
15193 H 130.90460426610463 71.03505988150687 9.49439601260832 H 0.0 **** 0.06
15194 H 132.49525148947532 71.83605066707764 9.508641441827933 H 0.0 **** 0.06
15195 H 132.36233637633353 70.12990683980587 9.019479398805174 H 0.0 **** 0.06
15196 C 21.973390406098417 188.50229704903614 75.0584212357842 C 0.0 **** -0.24
15197 H 22.697557183154345 189.30849719106246 75.1763574463457 H 0.0 **** 0.06
15198 H 22.273852092539926 187.6511826383087 75.6699252669218 H 0.0 **** 0.06
15199 H 21.93427288234369 188.20168495669762 74.01049406325289 H 0.0 **** 0.06
15200 H 20.989134274106164 188.8480285135047 75.37368580824399 H 0.0 **** 0.06
15201 C 97.88249130156107 160.61413178101182 189.65541592362848 C 0.0 **** -0.24
15202 H 97.78588789198095 159.79158729843326 188.94633376874052 H 0.0 **** 0.06
15203 H 97.03709882361424 160.6012528004669 190.3427664988361 H 0.0 **** 0.06
15204 H 97.8965842944388 161.5594808061279 189.1134908957559 H 0.0 **** 0.06
15205 H 98.81007056106488 160.5028540491485 190.21660939648655 H 0.0 **** 0.06
15206 C 82.34147899469491 90.19212262622675 75.72025235903511 C 0.0 **** -0.24
15207 H 81.62476352516006 90.41544087396876 76.51182046540144 H 0.0 **** 0.06
15208 H 83.0970290617214 90.97775807687226 75.68404195458093 H 0.0 **** 0.06
15209 H 81.82110065977957 90.14243533967341 74.76358694991079 H 0.0 **** 0.06
15210 H 82.82048526805812 89.23472655816828 75.92421776796745 H 0.0 **** 0.06
15211 C 107.14346275098565 134.44439153968904 137.92149681182042 C 0.0 **** -0.24
15212 H 107.77419438939681 135.3284551872639 138.01732588881788 H 0.0 **** 0.06
15213 H 107.71558858657825 133.6379106752716 137.46162422162467 H 0.0 **** 0.06
15214 H 106.28128860872523 134.67947600713222 137.2983057021641 H 0.0 **** 0.06
15215 H 106.80450778908234 134.13181931290126 138.90879274550304 H 0.0 **** 0.06
15216 C 159.50635577315973 78.77871224500586 111.38211789719064 C 0.0 **** -0.24
15217 H 159.44255194712588 78.71690868245781 110.29584559049296 H 0.0 **** 0.06
15218 H 158.75781049566598 78.12144294498631 111.82750561072056 H 0.0 **** 0.06
15219 H 159.3216700942482 79.80545999413806 111.69917531928483 H 0.0 **** 0.06
15220 H 160.49968058842916 78.47059619652697 111.70614941368005 H 0.0 **** 0.06
15221 C 187.8125669210176 165.97059178491548 99.03557930761029 C 0.0 **** -0.24
15222 H 188.5776350290358 165.73597622368607 99.77566542770735 H 0.0 **** 0.06
15223 H 188.28654541209897 166.18724132182254 98.07854717928198 H 0.0 **** 0.06
15224 H 187.24250917638787 166.83892620995647 99.3649599686757 H 0.0 **** 0.06
15225 H 187.1425647571771 165.1172889069404 98.924311802491 H 0.0 **** 0.06
15226 C 38.78855862646027 178.47157631452103 66.22979465350775 C 0.0 **** -0.24
15227 H 38.47418430623773 179.16887491549676 65.4526732992158 H 0.0 **** 0.06
15228 H 39.63408313523516 177.88449998173056 65.8714207991343 H 0.0 **** 0.06
15229 H 37.96068462071101 177.80539428841712 66.47584404423557 H 0.0 **** 0.06
15230 H 39.082190305203795 179.02908242616405 67.11902212920995 H 0.0 **** 0.06
15231 C 201.9079111746787 139.87802068038548 165.7686396930941 C 0.0 **** -0.24
15232 H 201.78303867162762 138.82250855074278 166.0120963699904 H 0.0 **** 0.06
15233 H 201.576302559098 140.48599969995797 166.61147028466027 H 0.0 **** 0.06
15234 H 201.3129498843134 140.12074278766767 164.88874642606672 H 0.0 **** 0.06
15235 H 202.95926671576922 140.08148184202082 165.5654348273124 H 0.0 **** 0.06
15236 C 214.41075767764795 108.01986033772182 8.438570329762015 C 0.0 **** -0.24
15237 H 213.57090129767002 107.42800139653012 8.075176074482698 H 0.0 **** 0.06
15238 H 214.6179856094135 108.826990799667 7.735869725051899 H 0.0 **** 0.06
15239 H 215.29024503522297 107.38228428197603 8.53187042567643 H 0.0 **** 0.06
15240 H 214.16241306821337 108.44003434081777 9.414058375556351 H 0.0 **** 0.06
15241 C 125.70957638657428 66.19485549581395 14.60318071613554 C 0.0 **** -0.24
15242 H 125.22962090004951 66.47989221208917 15.5395134250128 H 0.0 **** 0.06
15243 H 125.46715580632842 66.92649071865128 13.833361727337689 H 0.0 **** 0.06
15244 H 125.3513881304384 65.21243766625014 14.296176626458632 H 0.0 **** 0.06
15245 H 126.79000298393494 66.15964612495378 14.745422820671848 H 0.0 **** 0.06
15246 C 191.50262030692784 155.11619784169955 211.83946700159976 C 0.0 **** -0.24
15247 H 192.02766374040303 154.23458709700157 212.20750100651586 H 0.0 **** 0.06
15248 H 191.03206334695955 154.885949608472 210.88313910259598 H 0.0 **** 0.06
15249 H 192.21213819233927 155.93334669979834 211.70744329648744 H 0.0 **** 0.06
15250 H 190.7382306293121 155.41059906019387 212.5589150455012 H 0.0 **** 0.06
15251 C 89.67684195149572 108.03906366839293 6.301346516035579 C 0.0 **** -0.24
15252 H 88.67217404019785 107.72284385924208 6.582639180953578 H 0.0 **** 0.06
15253 H 89.86567135749674 107.76584507370318 5.263292477213241 H 0.0 **** 0.06
15254 H 90.40552013664099 107.54712936136114 6.945332439572354 H 0.0 **** 0.06
15255 H 89.76177795487926 109.1199824250635 6.415041989332849 H 0.0 **** 0.06
15256 C 54.269172655507134 78.33907646430958 188.77433077033902 C 0.0 **** -0.24
15257 H 54.364085773248576 77.43327454489884 188.17564928892494 H 0.0 **** 0.06
15258 H 54.08709286047525 78.06900575538316 189.8152490776519 H 0.0 **** 0.06
15259 H 53.435657117942185 78.93486804777945 188.4018104609808 H 0.0 **** 0.06
15260 H 55.18934739800352 78.91851886475678 188.70519271905926 H 0.0 **** 0.06
15261 C 181.83335296374827 12.91761408726947 38.52674081272892 C 0.0 **** -0.24
15262 H 182.59690512935302 13.21957294708713 37.809608969723 H 0.0 **** 0.06
15263 H 180.98275831895035 12.491955608908512 37.99297141290674 H 0.0 **** 0.06
15264 H 181.50685779089463 13.787955791037106 39.09710594105485 H 0.0 **** 0.06
15265 H 182.24720678971173 12.172448397471825 39.20562757119228 H 0.0 **** 0.06
15266 C 131.20034857470927 160.11745582117624 11.142133387396896 C 0.0 **** -0.24
15267 H 131.55517212285804 159.4186270593182 10.385493628149717 H 0.0 **** 0.06
15268 H 131.77792543353132 159.98456167096163 12.05769566136371 H 0.0 **** 0.06
15269 H 130.1467220034806 159.92822378103182 11.345935765641201 H 0.0 **** 0.06
15270 H 131.32331336703572 161.13785394057024 10.780225303738746 H 0.0 **** 0.06
15271 C 31.427116857962005 197.6459981651932 205.9442147849254 C 0.0 **** -0.24
15272 H 31.368972910634398 197.7247311775066 207.03014689289583 H 0.0 **** 0.06
15273 H 30.425327838902604 197.5043733469659 205.5367232688298 H 0.0 **** 0.06
15274 H 32.05255112208667 196.79476212353183 205.67492252276435 H 0.0 **** 0.06
15275 H 31.859600589673562 198.55959193891113 205.5363528301522 H 0.0 **** 0.06
15276 C 1.643095151898251 99.07306046214973 30.635831351866898 C 0.0 **** -0.24
15277 H 1.1526556461801363 99.02076695957061 29.663654093120783 H 0.0 **** 0.06
15278 H 2.4324060263821536 98.32115148921287 30.68447722825175 H 0.0 **** 0.06
15279 H 0.9126982685983194 98.8851263715008 31.42200581481694 H 0.0 **** 0.06
15280 H 2.0759278696322383 100.06361158818311 30.771854966708133 H 0.0 **** 0.06
15281 C 156.20981559194888 214.36389025837485 132.49386403886325 C 0.0 **** -0.24
15282 H 155.19123060043148 213.986210515042 132.57605128250498 H 0.0 **** 0.06
15283 H 156.8308268077294 213.9069679565477 133.26485575703344 H 0.0 **** 0.06
15284 H 156.20740485385517 215.44632439412032 132.6222683522725 H 0.0 **** 0.06
15285 H 156.60953950902825 214.11579910548346 131.5100750753598 H 0.0 **** 0.06
15286 C 121.60133159392107 169.27394237403504 67.1881487186875 C 0.0 **** -0.24
15287 H 121.93829000546218 168.25162384019205 67.36085363380153 H 0.0 **** 0.06
15288 H 121.15873343845526 169.6700503765417 68.10179386331004 H 0.0 **** 0.06
15289 H 120.8582338552096 169.2816698468638 66.38988109628195 H 0.0 **** 0.06
15290 H 122.45199263213395 169.89243523972198 66.89799264364598 H 0.0 **** 0.06
15291 C 60.27148387055047 184.2427043512606 91.15886931336672 C 0.0 **** -0.24
15292 H 60.191166962739345 185.31736046809053 91.32000760172622 H 0.0 **** 0.06
15293 H 60.927591935836745 183.80982195697425 91.9143791978126 H 0.0 **** 0.06
15294 H 60.68346304514017 184.0539601342913 90.1673936850496 H 0.0 **** 0.06
15295 H 59.28184314295348 183.78977421101186 91.23299547373335 H 0.0 **** 0.06
15296 C 155.06990972693978 47.99651681866982 145.32965709593583 C 0.0 **** -0.24
15297 H 154.0340636061493 47.88706067000078 145.65143855745833 H 0.0 **** 0.06
15298 H 155.21823944041284 48.99519795065498 144.9188001494103 H 0.0 **** 0.06
15299 H 155.29303980489453 47.25151238356162 144.56607180738558 H 0.0 **** 0.06
15300 H 155.7313757178526 47.85125439901782 146.18293939722122 H 0.0 **** 0.06
15301 C 106.19427126677834 174.84427497467868 112.24227426004079 C 0.0 **** -0.24
15302 H 105.63409938421341 174.78667583515033 111.30921856448889 H 0.0 **** 0.06
15303 H 105.5093177658826 174.72879605887806 113.08357652158988 H 0.0 **** 0.06
15304 H 106.69195576689094 175.81099191814258 112.3080739568815 H 0.0 **** 0.06
15305 H 106.93898895663801 174.04889183166517 112.26896418914869 H 0.0 **** 0.06
15306 C 73.87848360326245 161.38829256482634 105.91662695557157 C 0.0 **** -0.24
15307 H 73.45185922628127 161.85804881292847 105.0303054295929 H 0.0 **** 0.06
15308 H 73.71869133875629 162.0322172678766 106.78145153057214 H 0.0 **** 0.06
15309 H 74.946992320027 161.23586300742704 105.76857133110839 H 0.0 **** 0.06
15310 H 73.39433240904441 160.426230873253 106.08585776809561 H 0.0 **** 0.06
15311 C 207.96318748932407 96.61993161778001 135.69199818580807 C 0.0 **** -0.24
15312 H 207.21614217335804 96.57589015424496 134.89942655910056 H 0.0 **** 0.06
15313 H 207.46849714228637 96.79341132978426 136.64810926790153 H 0.0 **** 0.06
15314 H 208.66014934576722 97.43289723012883 135.49017596558508 H 0.0 **** 0.06
15315 H 208.50768413530162 95.67656885742032 135.7303418655784 H 0.0 **** 0.06
15316 C 158.6903049037789 71.13727230408647 206.71825722156666 C 0.0 **** -0.24
15317 H 158.17337392723755 72.09302753067946 206.8076130194434 H 0.0 **** 0.06
15318 H 158.01463045995786 70.33062051716966 207.00412448366586 H 0.0 **** 0.06
15319 H 159.56076228566417 71.1332203480524 207.37486111826067 H 0.0 **** 0.06
15320 H 159.0131162959978 70.99300224655845 205.68740462054984 H 0.0 **** 0.06
15321 C 97.42165362781826 48.98882551737907 57.55914242678037 C 0.0 **** -0.24
15322 H 97.1852365397264 49.83003905440653 56.90702212042281 H 0.0 **** 0.06
15323 H 96.64182174426794 48.23225910841525 57.472709579035396 H 0.0 **** 0.06
15324 H 97.47908526278543 49.33527676834467 58.5909065813383 H 0.0 **** 0.06
15325 H 98.37962562388178 48.55979692571913 57.26596969172654 H 0.0 **** 0.06
15326 C 98.14322814493961 146.6220844508457 198.06053772066454 C 0.0 **** -0.24
15327 H 98.802371596698 147.00370022218044 198.8400295057719 H 0.0 **** 0.06
15328 H 97.16816545604591 147.10321526917005 198.14165514856094 H 0.0 **** 0.06
15329 H 98.02791569199529 145.54415662212062 198.17909062394733 H 0.0 **** 0.06
15330 H 98.57511011234605 146.83564045650832 197.08308903878776 H 0.0 **** 0.06
15331 C 129.6153561426654 110.84612431382584 92.5632954806549 C 0.0 **** -0.24
15332 H 130.5520842572492 110.4667224836648 92.15500780351114 H 0.0 **** 0.06
15333 H 129.16674676853364 111.543787010573 91.85639978778654 H 0.0 **** 0.06
15334 H 129.8118420609606 111.35802345253217 93.50525656773804 H 0.0 **** 0.06
15335 H 128.93137026637953 110.01504940484449 92.73785197134588 H 0.0 **** 0.06
15336 C 50.359929364355594 4.549720890779895 93.60185383093564 C 0.0 **** -0.24
15337 H 51.15768793308962 4.540083281823435 94.3443445811201 H 0.0 **** 0.06
15338 H 50.37057676453122 3.6120767156307565 93.04531974761956 H 0.0 **** 0.06
15339 H 50.51346667476105 5.382304222638268 92.91525902479519 H 0.0 **** 0.06
15340 H 49.39798608504037 4.66441934302722 94.10249197020794 H 0.0 **** 0.06
15341 C 17.524989538434653 96.59434187727135 198.40617374242436 C 0.0 **** -0.24
15342 H 17.567185679245213 97.23483011584034 199.28760919253503 H 0.0 **** 0.06
15343 H 17.32935787770046 97.20322650352387 197.52338163449716 H 0.0 **** 0.06
15344 H 16.72655845285756 95.86216221963019 198.52685467658725 H 0.0 **** 0.06
15345 H 18.47758324572466 96.07781006237423 198.286665346051 H 0.0 **** 0.06
15346 C 201.26820825651367 110.2577855307931 174.77188526905678 C 0.0 **** -0.24
15347 H 200.56159762779046 109.53084101893192 174.3716513001609 H 0.0 **** 0.06
15348 H 201.54845171701098 109.97194806681965 175.7856789769936 H 0.0 **** 0.06
15349 H 200.8044590618781 111.24430602000389 174.78695684705463 H 0.0 **** 0.06
15350 H 202.15750625544138 110.28525133880576 174.14155690304744 H 0.0 **** 0.06
15351 C 113.54934171556785 152.77352615538064 159.78066369457036 C 0.0 **** -0.24
15352 H 112.66083084106124 153.3697050954636 159.5729132844467 H 0.0 **** 0.06
15353 H 114.03526556099588 152.50662520930064 158.84153853857498 H 0.0 **** 0.06
15354 H 113.26227088636254 151.8670269571228 160.31246785023183 H 0.0 **** 0.06
15355 H 114.23891814171391 153.35281402658563 160.39488519840478 H 0.0 **** 0.06
15356 C 71.38480407498423 132.97132063361852 89.06620631774395 C 0.0 **** -0.24
15357 H 71.4740186719049 133.62214924559362 89.93664760173765 H 0.0 **** 0.06
15358 H 71.37218132860176 131.93103549881857 89.39168234509246 H 0.0 **** 0.06
15359 H 72.23373087868185 133.13470560798618 88.40223736450048 H 0.0 **** 0.06
15360 H 70.45963936711723 133.19818186489107 88.53729955339014 H 0.0 **** 0.06
15361 C 62.70648946263431 119.71361040453563 84.62982105677243 C 0.0 **** -0.24
15362 H 63.59383515252894 119.09872921002996 84.47665156300197 H 0.0 **** 0.06
15363 H 62.088403222896844 119.68787375477054 83.73150586252355 H 0.0 **** 0.06
15364 H 63.00804270008136 120.74105817802014 84.83445942187002 H 0.0 **** 0.06
15365 H 62.13795912735995 119.32635470763746 85.47476744752142 H 0.0 **** 0.06
15366 C 58.94570388569748 64.57654020773587 162.53472185741538 C 0.0 **** -0.24
15367 H 59.81802048214578 63.93870903059961 162.3938308589993 H 0.0 **** 0.06
15368 H 58.091157644893414 64.14357466428909 162.0133383884644 H 0.0 **** 0.06
15369 H 59.15283228453944 65.56877437734317 162.13381873122 H 0.0 **** 0.06
15370 H 58.72159332730034 64.65459250170146 163.59895700410007 H 0.0 **** 0.06
15371 C 0.07227547470431261 89.86595191029471 78.70416038928 C 0.0 **** -0.24
15372 H 0.5505505632051921 88.93584853309005 78.39869882396614 H 0.0 **** 0.06
15373 H -0.211025975332646 90.43652545944337 77.82008616264919 H 0.0 **** 0.06
15374 H 0.7675712888345956 90.45063063281361 79.30754142988518 H 0.0 **** 0.06
15375 H -0.8171813192491939 89.64046108570517 79.29237007479513 H 0.0 **** 0.06
15376 C 153.7537754877897 187.19900672509087 142.5795577067944 C 0.0 **** -0.24
15377 H 153.59439713947506 186.2865455501407 143.15492306786018 H 0.0 **** 0.06
15378 H 153.09381872059464 187.9835054967243 142.95179271826765 H 0.0 **** 0.06
15379 H 153.53528995439297 187.00791705917624 141.52951107607032 H 0.0 **** 0.06
15380 H 154.79137502031006 187.51735137231333 142.68433865196863 H 0.0 **** 0.06
15381 C 149.11694088517402 92.00881156263982 111.1197026296014 C 0.0 **** -0.24
15382 H 149.23955069918327 92.29405089020086 110.07553287704242 H 0.0 **** 0.06
15383 H 149.40584439389164 92.84204119141349 111.76093838882188 H 0.0 **** 0.06
15384 H 149.74849156886626 91.14692150423944 111.338013003391 H 0.0 **** 0.06
15385 H 148.074129247702 91.75170786741025 111.3064851800102 H 0.0 **** 0.06
15386 C 77.97202850467185 196.4232697263005 22.749523003540205 C 0.0 **** -0.24
15387 H 77.63654087946524 195.38866379889322 22.82464805586696 H 0.0 **** 0.06
15388 H 78.94262566722959 196.5264030543558 23.23625786650473 H 0.0 **** 0.06
15389 H 77.24918312704769 197.07619831725083 23.23895221826743 H 0.0 **** 0.06
15390 H 78.06075236504613 196.70033945522056 21.699594167987954 H 0.0 **** 0.06
15391 C 188.44989875836765 204.22783605828056 204.12467479925516 C 0.0 **** -0.24
15392 H 189.03531893361304 205.13738095396502 204.2604961652695 H 0.0 **** 0.06
15393 H 187.39142170469202 204.45715790843155 204.24268722225224 H 0.0 **** 0.06
15394 H 188.74860431884596 203.48891100868724 204.86849393228238 H 0.0 **** 0.06
15395 H 188.62699780417307 203.8287731429746 203.12619853752406 H 0.0 **** 0.06
15396 C 143.2527050628471 141.62914697225557 162.27069432902525 C 0.0 **** -0.24
15397 H 142.5288435049905 141.40618201096652 161.48581329645293 H 0.0 **** 0.06
15398 H 142.80664790379194 142.3150457106217 162.99120600554267 H 0.0 **** 0.06
15399 H 144.1371093853498 142.08825623830688 161.8302902048593 H 0.0 **** 0.06
15400 H 143.53591707465546 140.7053598917135 162.77627868556175 H 0.0 **** 0.06
15401 C 196.14879423183427 114.31463354464807 114.7182817410632 C 0.0 **** -0.24
15402 H 196.33655387082297 115.0603737757329 113.94618851331818 H 0.0 **** 0.06
15403 H 196.79143862420102 114.51051959659839 115.57671110857801 H 0.0 **** 0.06
15404 H 196.36197166562724 113.32085168956587 114.32346766224298 H 0.0 **** 0.06
15405 H 195.1052207714115 114.3658447027023 115.02643099320657 H 0.0 **** 0.06
15406 C 177.71011437202952 176.23875450411953 28.944117006419077 C 0.0 **** -0.24
15407 H 178.48552772648918 175.67990737782623 28.420275280467507 H 0.0 **** 0.06
15408 H 176.77147806153127 176.15732100236286 28.396303541436325 H 0.0 **** 0.06
15409 H 178.00224113077599 177.28643405476396 29.012729289970025 H 0.0 **** 0.06
15410 H 177.58285514852201 175.82988009549686 29.94681584261957 H 0.0 **** 0.06
15411 C 115.44511531873933 66.32802409014701 76.06639002984844 C 0.0 **** -0.24
15412 H 115.90293812540112 66.44666542428361 77.04876453020574 H 0.0 **** 0.06
15413 H 115.16812872207983 65.28480264655397 75.91834084192232 H 0.0 **** 0.06
15414 H 116.15656054669601 66.62865306676343 75.29681023913969 H 0.0 **** 0.06
15415 H 114.55481148417361 66.95365494732167 76.00315041765788 H 0.0 **** 0.06
15416 C 48.17113578710166 61.35107056910816 11.065121742991437 C 0.0 **** -0.24
15417 H 47.39132949564578 61.10025416511783 10.34610059296358 H 0.0 **** 0.06
15418 H 47.74657649866407 61.959247834599466 11.863676660461863 H 0.0 **** 0.06
15419 H 48.96237383183944 61.909007944305 10.563302655329181 H 0.0 **** 0.06
15420 H 48.58439370890295 60.43388587674299 11.485850019207021 H 0.0 **** 0.06
15421 C 213.76332523041742 148.61016732791109 11.74601263905879 C 0.0 **** -0.24
15422 H 214.02983458619593 147.5697372152266 11.557651029883402 H 0.0 **** 0.06
15423 H 212.7709627628615 148.6545899262116 12.196275369003786 H 0.0 **** 0.06
15424 H 213.7599994446261 149.15980808488303 10.80563820003394 H 0.0 **** 0.06
15425 H 214.49144860366422 149.0545644207425 12.42440611628092 H 0.0 **** 0.06
15426 C 2.6021648681359366 124.50589617153038 204.41274996431 C 0.0 **** -0.24
15427 H 2.5433292476755653 124.38280030857125 203.33162281920082 H 0.0 **** 0.06
15428 H 1.6543391073246525 124.89478275286076 204.7865730666067 H 0.0 **** 0.06
15429 H 3.4032312022235303 125.20360476692433 204.65579023256586 H 0.0 **** 0.06
15430 H 2.8074776881898984 123.54153082252371 204.87742647093046 H 0.0 **** 0.06
15431 C 115.92794963895587 102.93491568205961 37.61121047467833 C 0.0 **** -0.24
15432 H 116.60203452208778 102.18803165761979 38.032236583764984 H 0.0 **** 0.06
15433 H 115.5851681528773 103.60164807421584 38.4026432966578 H 0.0 **** 0.06
15434 H 115.0717716019331 102.43656015947896 37.15763571546313 H 0.0 **** 0.06
15435 H 116.4556015649661 103.51288948778524 36.85227775868225 H 0.0 **** 0.06
15436 C 89.36227086282362 169.47157560618788 36.017261974556874 C 0.0 **** -0.24
15437 H 89.98464772153021 170.22194187061527 36.506162449143815 H 0.0 **** 0.06
15438 H 89.12860971320985 168.67656597791753 36.72502767431706 H 0.0 **** 0.06
15439 H 89.90021870498184 169.0541908563524 35.165602864197226 H 0.0 **** 0.06
15440 H 88.43843686297411 169.93581702935205 35.671946494742826 H 0.0 **** 0.06
15441 C 22.99956618711269 123.07890854658093 111.72571849581372 C 0.0 **** -0.24
15442 H 22.92315512994719 122.16842669122705 111.13066363137132 H 0.0 **** 0.06
15443 H 23.889877430407537 123.02956119437737 112.35287068687417 H 0.0 **** 0.06
15444 H 22.11512307820327 123.17393722777801 112.35574950721038 H 0.0 **** 0.06
15445 H 23.067690583532382 123.94113124579722 111.06287899129579 H 0.0 **** 0.06
15446 C 36.91647307499048 142.56655004642425 199.5120155955962 C 0.0 **** -0.24
15447 H 36.049178862155216 142.24714625771378 198.93602248024595 H 0.0 **** 0.06
15448 H 37.81042266593181 142.07700814233 199.12576957603147 H 0.0 **** 0.06
15449 H 36.7772475315724 142.29566746506833 200.55916029986588 H 0.0 **** 0.06
15450 H 37.02944619793766 143.64772570605294 199.42911558831713 H 0.0 **** 0.06
15451 C 161.11401416063435 159.34690916124933 134.15679737652397 C 0.0 **** -0.24
15452 H 161.72071818700613 160.18966551140917 134.4875451487975 H 0.0 **** 0.06
15453 H 160.8239926952758 158.7481458550074 135.020352929875 H 0.0 **** 0.06
15454 H 161.69083082814808 158.7318122560664 133.46597216755976 H 0.0 **** 0.06
15455 H 160.22038810049156 159.71771258601734 133.65469537234105 H 0.0 **** 0.06
15456 C 177.11140426857236 179.79945670926008 54.10521749308303 C 0.0 **** -0.24
15457 H 177.36927763107798 180.85727160890812 54.062169955854955 H 0.0 **** 0.06
15458 H 177.973257254129 179.20359594780973 53.80209285136954 H 0.0 **** 0.06
15459 H 176.27727186553017 179.60176181111802 53.43102240256296 H 0.0 **** 0.06
15460 H 176.82633332096196 179.53579986544207 55.12349582089254 H 0.0 **** 0.06
15461 C 128.46632932961842 215.7261135660948 184.56733472169228 C 0.0 **** -0.24
15462 H 129.27117875056842 216.04221989307968 185.2307948430359 H 0.0 **** 0.06
15463 H 127.51139200665706 216.06548673130084 184.9676467094053 H 0.0 **** 0.06
15464 H 128.4640785186212 214.63889275836056 184.49153247491878 H 0.0 **** 0.06
15465 H 128.61988603231072 216.15858697741876 183.57795751982917 H 0.0 **** 0.06
15466 C 93.250594111047 105.48164191250912 14.734813022415494 C 0.0 **** -0.24
15467 H 92.60368786776381 106.30301637653143 14.428555909579103 H 0.0 **** 0.06
15468 H 93.44813333954677 105.55304794568708 15.804112119224783 H 0.0 **** 0.06
15469 H 94.1914634925415 105.5366497463544 14.186451739686788 H 0.0 **** 0.06
15470 H 92.75895608860138 104.53277067546553 14.518180656019467 H 0.0 **** 0.06
15471 C 136.55564066155483 181.7384362960732 26.489985203958682 C 0.0 **** -0.24
15472 H 136.16942836574975 181.51188522815087 27.483516685175744 H 0.0 **** 0.06
15473 H 135.8694193232633 182.41377559631152 25.979096528038284 H 0.0 **** 0.06
15474 H 136.65103060734032 180.81496770454288 25.918740372688134 H 0.0 **** 0.06
15475 H 137.5336012670943 182.2126503963874 26.579980756495317 H 0.0 **** 0.06
15476 C 41.45044141103993 199.4665771688388 16.541266689536627 C 0.0 **** -0.24
15477 H 41.33810385353708 200.5495290794819 16.59619914340088 H 0.0 **** 0.06
15478 H 42.50787021304292 199.20780973416907 16.598335811635508 H 0.0 **** 0.06
15479 H 41.03763254171356 199.10628307255155 15.599774728183576 H 0.0 **** 0.06
15480 H 40.91782802423576 199.00374860691778 17.372084864511095 H 0.0 **** 0.06
15481 C 213.01376091219703 151.3233370481471 93.31084098142377 C 0.0 **** -0.24
15482 H 212.52318789267673 151.38967232666778 94.28168436295964 H 0.0 **** 0.06
15483 H 212.39510743142748 150.73799983756993 92.62992588211286 H 0.0 **** 0.06
15484 H 213.98406934877883 150.83923757347299 93.4261379494426 H 0.0 **** 0.06
15485 H 213.15365675232476 152.32506708349928 92.9052115719755 H 0.0 **** 0.06
15486 C 72.70134438505652 9.19938959260405 13.77339318557631 C 0.0 **** -0.24
15487 H 73.11738803751045 10.063962362189883 14.29077480943829 H 0.0 **** 0.06
15488 H 72.60296203004874 8.370335869625066 14.47372522300472 H 0.0 **** 0.06
15489 H 73.36430094681613 8.91100015585667 12.957309074516104 H 0.0 **** 0.06
15490 H 71.72095562099695 9.454657499475331 13.371316946827022 H 0.0 **** 0.06
15491 C 101.58926526684648 165.48693113090445 203.93561718605667 C 0.0 **** -0.24
15492 H 102.52695922290188 164.95707974794323 203.76943449926426 H 0.0 **** 0.06
15493 H 101.4994704724151 165.74338202333792 204.99121937046368 H 0.0 **** 0.06
15494 H 100.75428053770814 164.84936374920855 203.64476589127383 H 0.0 **** 0.06
15495 H 101.57612185747941 166.3985906445607 203.3377339786009 H 0.0 **** 0.06
15496 C 169.2653582702655 14.803368855975236 65.63521956057122 C 0.0 **** -0.24
15497 H 168.62648453046162 15.4141692191333 66.27179977544336 H 0.0 **** 0.06
15498 H 169.59847631414902 15.393744060810661 64.78090659429441 H 0.0 **** 0.06
15499 H 168.7048312995858 13.937411942519873 65.28230273659096 H 0.0 **** 0.06
15500 H 170.1314300507426 14.467254193938288 66.20479548261216 H 0.0 **** 0.06
15501 C 155.3082414411013 101.33334563617882 69.09895139258083 C 0.0 **** -0.24
15502 H 156.04117442763692 101.72777358140081 69.80295492575914 H 0.0 **** 0.06
15503 H 154.72360691261514 102.15533026853717 68.68546272953705 H 0.0 **** 0.06
15504 H 154.64658565624802 100.63826157177556 69.61542781532569 H 0.0 **** 0.06
15505 H 155.82457522956548 100.81233730430904 68.29176436402184 H 0.0 **** 0.06
15506 C 84.5283055853401 96.02784532940971 48.19384675307222 C 0.0 **** -0.24
15507 H 85.33107636546218 95.65267719708636 47.55841768676953 H 0.0 **** 0.06
15508 H 83.99005185295356 96.8178780257402 47.67105867051757 H 0.0 **** 0.06
15509 H 84.95153096050736 96.42390381207015 49.116636050231676 H 0.0 **** 0.06
15510 H 83.84229390364679 95.21318074188314 48.42919913956514 H 0.0 **** 0.06
15511 C 194.68432692232648 143.9254412041338 208.43732381740904 C 0.0 **** -0.24
15512 H 194.9990702335336 143.44116659262016 209.3616267343584 H 0.0 **** 0.06
15513 H 195.38670269600902 144.72062289617645 208.18595655980607 H 0.0 **** 0.06
15514 H 193.688242705804 144.34877632083078 208.56921301673498 H 0.0 **** 0.06
15515 H 194.66292801933702 143.19149407070586 207.63161553749092 H 0.0 **** 0.06
15516 C 126.35115142014287 159.79174721884365 60.60042370120965 C 0.0 **** -0.24
15517 H 126.05638273593856 160.17845945798922 61.57659439561343 H 0.0 **** 0.06
15518 H 125.52565052645441 159.2221903382253 60.17184302609263 H 0.0 **** 0.06
15519 H 127.21977505422201 159.14359577954352 60.71517048830208 H 0.0 **** 0.06
15520 H 126.60147374792986 160.6224649680701 59.941575563551964 H 0.0 **** 0.06
15521 C 65.18536978029283 74.99997663859585 96.33118794873894 C 0.0 **** -0.24
15522 H 65.30567711684435 75.23907160378451 95.2742769358336 H 0.0 **** 0.06
15523 H 65.30251393517591 73.92663286481587 96.47568536266664 H 0.0 **** 0.06
15524 H 64.1925605546034 75.30552128145047 96.66095520561032 H 0.0 **** 0.06
15525 H 65.94007912429333 75.53009092365704 96.91090319207422 H 0.0 **** 0.06
15526 C 43.113961633659926 72.76101294191874 129.94171095059028 C 0.0 **** -0.24
15527 H 44.09983344299826 72.61615563342734 130.38388430820066 H 0.0 **** 0.06
15528 H 42.676611374957986 71.79109846269118 129.70550810185279 H 0.0 **** 0.06
15529 H 43.20849546809529 73.3494106176391 129.02874946441113 H 0.0 **** 0.06
15530 H 42.473020755670916 73.28725439390844 130.64941701241133 H 0.0 **** 0.06
15531 C 190.01617053828787 189.52881925859197 192.88996307855075 C 0.0 **** -0.24
15532 H 189.00111323836103 189.47942048628062 192.49433750286565 H 0.0 **** 0.06
15533 H 190.03790283497858 190.1982463530545 193.75120999277055 H 0.0 **** 0.06
15534 H 190.6887843320299 189.90628550008668 192.1194891563836 H 0.0 **** 0.06
15535 H 190.33558153399676 188.53311406574608 193.1958681344847 H 0.0 **** 0.06
15536 C 123.38291704220842 139.6672029200755 124.15247046543216 C 0.0 **** -0.24
15537 H 124.04775262086662 139.78892151505892 123.29711885380992 H 0.0 **** 0.06
15538 H 123.35262267945285 140.59566655393104 124.7227262586773 H 0.0 **** 0.06
15539 H 123.7521223297565 138.86236013123374 124.78809116796101 H 0.0 **** 0.06
15540 H 122.38108896049295 139.42301197146963 123.80191892956329 H 0.0 **** 0.06
15541 C 90.85353998898456 169.7067522667786 109.12303106165054 C 0.0 **** -0.24
15542 H 90.82068122603685 170.52735865944936 109.84001543672515 H 0.0 **** 0.06
15543 H 91.10933225547855 168.78153625477944 109.64070548335992 H 0.0 **** 0.06
15544 H 91.60472610813285 169.91849470222962 108.36284314184213 H 0.0 **** 0.06
15545 H 89.8770295942516 169.60009815534573 108.6483253388253 H 0.0 **** 0.06
15546 C 135.5446309408402 214.56382731540117 132.0950172953738 C 0.0 **** -0.24
15547 H 134.5617856158578 214.40971755709202 131.6495238747117 H 0.0 **** 0.06
15548 H 135.79448547893304 213.71082458018878 132.7269130154366 H 0.0 **** 0.06
15549 H 135.53133470463024 215.47207898976097 132.69860512249687 H 0.0 **** 0.06
15550 H 136.29030087380062 214.6626856566666 131.3062996575605 H 0.0 **** 0.06
15551 C 123.93197232323068 88.68596992746161 212.9831555949455 C 0.0 **** -0.24
15552 H 122.96663405803922 88.38410813413013 212.5780968206121 H 0.0 **** 0.06
15553 H 124.70459075129263 88.00230439974389 212.62839739152977 H 0.0 **** 0.06
15554 H 123.89377018224 88.65809953680308 214.07186352848683 H 0.0 **** 0.06
15555 H 124.16349658869864 89.69841380701122 212.65341171004545 H 0.0 **** 0.06
15556 C 166.4169887741457 187.26271171660792 100.88752005743585 C 0.0 **** -0.24
15557 H 166.78436887071734 186.6480661248019 101.70851992081604 H 0.0 **** 0.06
15558 H 166.25061572096075 186.63677047321897 100.01058008771095 H 0.0 **** 0.06
15559 H 167.15253134665625 188.03232083857816 100.65111980622721 H 0.0 **** 0.06
15560 H 165.47831862229117 187.734758574836 101.17926011680622 H 0.0 **** 0.06
15561 C 96.20824422777554 57.11580893969864 124.50675839844995 C 0.0 **** -0.24
15562 H 96.19558535104977 56.13773962968071 124.02576222914125 H 0.0 **** 0.06
15563 H 95.45677035295347 57.14267736130404 125.29618746368355 H 0.0 **** 0.06
15564 H 95.98600233067202 57.88621121354896 123.76795461995341 H 0.0 **** 0.06
15565 H 97.19332226024193 57.296445585398146 124.93658836840943 H 0.0 **** 0.06
15566 C 72.62916160387971 202.4348233022808 122.69053267406211 C 0.0 **** -0.24
15567 H 73.69495448750052 202.2616276720184 122.54190246905252 H 0.0 **** 0.06
15568 H 72.2258860082008 202.97203929762293 121.83193852648408 H 0.0 **** 0.06
15569 H 72.48122527056847 203.02794936672265 123.5930366636551 H 0.0 **** 0.06
15570 H 72.11600030388456 201.47907576891012 122.79541958455702 H 0.0 **** 0.06
15571 C 98.42855874104167 53.99703721861624 105.7549708701264 C 0.0 **** -0.24
15572 H 99.34462146805753 53.517471092926854 106.10005426614326 H 0.0 **** 0.06
15573 H 97.8154877421603 54.270349999596306 106.61386854356219 H 0.0 **** 0.06
15574 H 97.87589507161606 53.307755471502844 105.11719374231699 H 0.0 **** 0.06
15575 H 98.6806070840964 54.89410150198688 105.18775973415855 H 0.0 **** 0.06
15576 C 113.6199734092621 78.00777085726452 164.7647949499377 C 0.0 **** -0.24
15577 H 113.9232933726751 76.96928392385257 164.63792888146816 H 0.0 **** 0.06
15578 H 113.1301064500142 78.12767696430052 165.73130518317222 H 0.0 **** 0.06
15579 H 112.92828618277905 78.28488820730485 163.96939260641037 H 0.0 **** 0.06
15580 H 114.49905329682512 78.65044896270388 164.72145289382541 H 0.0 **** 0.06
15581 C 109.61576941716146 186.6766212990989 212.6535474961019 C 0.0 **** -0.24
15582 H 109.21880555948837 185.7966928963489 212.14726611225754 H 0.0 **** 0.06
15583 H 110.07290564624975 186.37853997424514 213.5962967220681 H 0.0 **** 0.06
15584 H 108.80570498140679 187.3789125739844 212.84747710591702 H 0.0 **** 0.06
15585 H 110.36460765127163 187.15273192619537 212.01958130791942 H 0.0 **** 0.06
15586 C 92.71105594631825 176.11190017769457 127.31495911860065 C 0.0 **** -0.24
15587 H 93.1371413435885 176.71542109484574 128.11604517120026 H 0.0 **** 0.06
15588 H 92.31446704757701 175.18604293927848 127.72940178635099 H 0.0 **** 0.06
15589 H 93.48517562278732 175.88160285730618 126.58338410728805 H 0.0 **** 0.06
15590 H 91.90747349355104 176.6679970413739 126.83107723850094 H 0.0 **** 0.06
15591 C 165.99629424615182 97.25841122111792 31.664175651795844 C 0.0 **** -0.24
15592 H 166.35673662604918 96.37522358938664 31.13752299488931 H 0.0 **** 0.06
15593 H 166.66462277353634 98.0971427529988 31.467891309470048 H 0.0 **** 0.06
15594 H 165.97060414168678 97.05728457882513 32.73501514676309 H 0.0 **** 0.06
15595 H 164.99249452705865 97.50452836966134 31.315828649440064 H 0.0 **** 0.06
15596 C 30.71294618930372 112.15423927422137 198.21969792394808 C 0.0 **** -0.24
15597 H 30.219104211883604 112.09077073590868 197.24986753206133 H 0.0 **** 0.06
15598 H 31.677385383101438 111.64767460765239 198.16991403290683 H 0.0 **** 0.06
15599 H 30.090674608895924 111.67791916399574 198.97688175768792 H 0.0 **** 0.06
15600 H 30.865687882151235 113.20231214326344 198.4807485017094 H 0.0 **** 0.06
15601 C 48.49318715072887 114.17301987759481 3.1263854602879064 C 0.0 **** -0.24
15602 H 48.76732059231945 113.20766729368393 2.6999591536218475 H 0.0 **** 0.06
15603 H 48.26066467693974 114.0487554857134 4.184853138858443 H 0.0 **** 0.06
15604 H 47.619735603967214 114.56498895613868 2.605163074208974 H 0.0 **** 0.06
15605 H 49.32411555973016 114.86854462634335 3.01637905560068 H 0.0 **** 0.06
15606 C 163.70355547530278 168.0810801791365 28.705863388989343 C 0.0 **** -0.24
15607 H 164.20065775542645 167.11668637122887 28.594296957524833 H 0.0 **** 0.06
15608 H 164.33543743463673 168.74945042755513 29.291151817754994 H 0.0 **** 0.06
15609 H 162.75107289716 167.9402862771163 29.21694181213087 H 0.0 **** 0.06
15610 H 163.52800653188467 168.51473274411893 27.721338549788342 H 0.0 **** 0.06
15611 C 168.03343757970453 13.82991678202113 0.9519759878386367 C 0.0 **** -0.24
15612 H 167.90626072575913 14.902290319476506 0.7987858887095456 H 0.0 **** 0.06
15613 H 167.7486130704504 13.297497733146457 0.043873509397258204 H 0.0 **** 0.06
15614 H 167.40234677439048 13.504376590301646 1.7780486789710608 H 0.0 **** 0.06
15615 H 169.07700012187803 13.618275164019465 1.1857497864335187 H 0.0 **** 0.06
15616 C 108.04956601675151 11.552453085217522 109.70931802106169 C 0.0 **** -0.24
15617 H 108.49237509719568 10.571151333574917 109.88173361869427 H 0.0 **** 0.06
15618 H 108.04468568064625 11.764831559311872 108.63957565674177 H 0.0 **** 0.06
15619 H 108.63419133687829 12.311497915097888 110.22802921163436 H 0.0 **** 0.06
15620 H 107.02731853987846 11.560811657459752 110.08517748538121 H 0.0 **** 0.06
15621 C 168.38417598643883 130.47842974504425 22.872850148504597 C 0.0 **** -0.24
15622 H 168.29462267995194 129.60123497977514 22.230751469021513 H 0.0 **** 0.06
15623 H 167.61091446912639 131.20077259686798 22.61002210853212 H 0.0 **** 0.06
15624 H 169.3662469464245 130.93048193587458 22.734024420633332 H 0.0 **** 0.06
15625 H 168.26508729905316 130.17981142655412 23.913609051650738 H 0.0 **** 0.06
15626 C 190.39971430439027 97.71619294534308 47.35394269351123 C 0.0 **** -0.24
15627 H 190.83174641834617 96.72282461971317 47.4814447942734 H 0.0 **** 0.06
15628 H 191.19819045709446 98.4415107543552 47.19579385342031 H 0.0 **** 0.06
15629 H 189.83713094650258 97.9848795346539 48.24804650124872 H 0.0 **** 0.06
15630 H 189.7332834558454 97.71431292890408 46.49159037518186 H 0.0 **** 0.06
15631 C 156.6676683506933 0.6077029950823913 53.29522548742949 C 0.0 **** -0.24
15632 H 157.14255364909366 1.3989983403299675 52.715131729653194 H 0.0 **** 0.06
15633 H 157.39500409706062 -0.17667846245349494 53.50406651338943 H 0.0 **** 0.06
15634 H 155.8358120154992 0.19011305473865292 52.72710592841793 H 0.0 **** 0.06
15635 H 156.2963043705442 1.0203858453906278 54.23361070019672 H 0.0 **** 0.06
15636 C 201.2407970697068 140.2432205963476 32.10693960882473 C 0.0 **** -0.24
15637 H 201.99894963818454 141.0087160123561 32.26634963118653 H 0.0 **** 0.06
15638 H 201.5351968515025 139.60871487407974 31.270584179190593 H 0.0 **** 0.06
15639 H 200.28627521876774 140.71926166447167 31.88375568324946 H 0.0 **** 0.06
15640 H 201.14249612594776 139.6352677648373 33.006792058428374 H 0.0 **** 0.06
15641 C 63.0377633031203 119.87177651262216 70.8928460961822 C 0.0 **** -0.24
15642 H 62.99882361611992 118.98617653531316 70.25839237716791 H 0.0 **** 0.06
15643 H 62.69617693335067 119.61533736016692 71.89540224950316 H 0.0 **** 0.06
15644 H 62.394734333330405 120.64662613298499 70.47602966390191 H 0.0 **** 0.06
15645 H 64.06345461119298 120.23783951416247 70.94115096944357 H 0.0 **** 0.06
15646 C 60.63938328800873 0.07171363671400854 107.95265325639195 C 0.0 **** -0.24
15647 H 60.65913180687161 -0.8815625767579149 107.4249245520673 H 0.0 **** 0.06
15648 H 59.60757026348146 0.40713955792722345 108.05677562935364 H 0.0 **** 0.06
15649 H 61.206486789347736 0.8118189089190082 107.38814998785358 H 0.0 **** 0.06
15650 H 61.08368360268193 -0.051236862743820666 108.94048044039153 H 0.0 **** 0.06
15651 C 41.243730223410665 134.03726768043902 17.565674805303345 C 0.0 **** -0.24
15652 H 40.53916591284168 134.86726493006142 17.6192643176597 H 0.0 **** 0.06
15653 H 40.84456901833602 133.18651515426967 18.120220250764234 H 0.0 **** 0.06
15654 H 42.195306055379234 134.34046222863066 18.000611137470713 H 0.0 **** 0.06
15655 H 41.392778998719066 133.7538186825861 16.524437924643095 H 0.0 **** 0.06
15656 C 175.7382587481592 71.63083705222802 154.12888433056264 C 0.0 **** -0.24
15657 H 175.80661042459155 72.27485236377505 153.2532780093298 H 0.0 **** 0.06
15658 H 176.15724199333044 70.65216088090453 153.89374152751526 H 0.0 **** 0.06
15659 H 174.69272412410913 71.51793416123503 154.41645246502765 H 0.0 **** 0.06
15660 H 176.29528414179262 72.07671518481375 154.9529483690145 H 0.0 **** 0.06
15661 C 29.804344484884396 116.22221297752425 180.48906143056612 C 0.0 **** -0.24
15662 H 29.42486256849159 115.33191032629502 180.9901240956487 H 0.0 **** 0.06
15663 H 28.966970920503073 116.82928539851117 180.1437300810282 H 0.0 **** 0.06
15664 H 30.415983088690453 115.92720447240883 179.63710056427237 H 0.0 **** 0.06
15665 H 30.408943196345945 116.80171105864368 181.18774700559243 H 0.0 **** 0.06
15666 C 144.32916759881346 19.325700356027824 124.60401398571288 C 0.0 **** -0.24
15667 H 145.12389897842945 20.007771073823562 124.30308759186876 H 0.0 **** 0.06
15668 H 143.3824095764714 19.864712231758517 124.6403538172013 H 0.0 **** 0.06
15669 H 144.55495966038472 18.91837889138526 125.5901444675011 H 0.0 **** 0.06
15670 H 144.2582059417042 18.511231281950472 123.88326874410699 H 0.0 **** 0.06
15671 C 73.83294358020942 19.958254897853067 199.35551338270994 C 0.0 **** -0.24
15672 H 74.50500243041267 19.508146504765932 200.08665323613224 H 0.0 **** 0.06
15673 H 74.19337569214667 20.953813954190593 199.0977421965855 H 0.0 **** 0.06
15674 H 72.83232270045335 20.031621627088953 199.77944649641614 H 0.0 **** 0.06
15675 H 73.80438979143332 19.33820183348189 198.45942632347686 H 0.0 **** 0.06
15676 C 61.4999871214288 183.91839506411702 196.13944193082705 C 0.0 **** -0.24
15677 H 62.53841373247681 184.10758457024883 196.41410475255105 H 0.0 **** 0.06
15678 H 61.31292730833174 184.30551383222308 195.13772049964913 H 0.0 **** 0.06
15679 H 60.839652683122765 184.41542521385992 196.8504564210465 H 0.0 **** 0.06
15680 H 61.31063600493165 182.84502888311158 196.15656897149054 H 0.0 **** 0.06
15681 C 211.110546527829 32.09608835401502 163.7451347786224 C 0.0 **** -0.24
15682 H 210.0542779092602 31.913625903377778 163.94132393670293 H 0.0 **** 0.06
15683 H 211.612368611181 32.36260293937107 164.6756199845935 H 0.0 **** 0.06
15684 H 211.21182091284476 32.91291731201895 163.03019135598632 H 0.0 **** 0.06
15685 H 211.56328749725944 31.19438254109292 163.33233896461667 H 0.0 **** 0.06
15686 C 142.48702757944642 26.42045666593833 80.73083608847924 C 0.0 **** -0.24
15687 H 142.79876820427802 26.559973174479893 79.69506483646575 H 0.0 **** 0.06
15688 H 141.80091092130004 27.2198638339878 81.01332196995122 H 0.0 **** 0.06
15689 H 143.36113860861303 26.445300878667865 81.38028722816944 H 0.0 **** 0.06
15690 H 141.98544644394786 25.458726744174072 80.83213286116751 H 0.0 **** 0.06
15691 C 78.16886894419265 196.18445719714583 164.33704911570848 C 0.0 **** -0.24
15692 H 77.65115745959896 195.66670000289713 165.14419187525004 H 0.0 **** 0.06
15693 H 79.031724503631 195.5968238665036 164.02297349542187 H 0.0 **** 0.06
15694 H 78.50357720783494 197.16152257198647 164.68768253409573 H 0.0 **** 0.06
15695 H 77.49025626497398 196.31464078399665 163.49435332632294 H 0.0 **** 0.06
15696 C 28.62807105459632 181.06961861109647 186.49878130212167 C 0.0 **** -0.24
15697 H 29.5386313282699 180.48428659737337 186.62734086445798 H 0.0 **** 0.06
15698 H 28.681702629131394 181.6224267536785 185.56082557256929 H 0.0 **** 0.06
15699 H 28.525935070326454 181.76917829188315 187.32842738981842 H 0.0 **** 0.06
15700 H 27.76709470896637 180.40062796078735 186.47864680670438 H 0.0 **** 0.06
15701 C 46.72157366287519 207.93816619772923 106.8920935194949 C 0.0 **** -0.24
15702 H 46.6270813202525 208.84560635911004 107.4905897427504 H 0.0 **** 0.06
15703 H 45.82469008594917 207.32986935109034 107.01352230753825 H 0.0 **** 0.06
15704 H 47.59291228377565 207.37367748808325 107.22425408741013 H 0.0 **** 0.06
15705 H 46.840236990999244 208.20717068004166 105.84240035334354 H 0.0 **** 0.06
15706 C 147.94025111386475 82.90086096080175 125.55015522616918 C 0.0 **** -0.24
15707 H 148.20306782982482 83.04284694572571 124.502137820977 H 0.0 **** 0.06
15708 H 147.67732322837844 83.86210520140888 125.99102772839086 H 0.0 **** 0.06
15709 H 148.79040187560656 82.47597278530439 126.08341580944585 H 0.0 **** 0.06
15710 H 147.0897473610471 82.2223895059687 125.62185599506711 H 0.0 **** 0.06
15711 C 60.051491410813824 68.58621433240228 67.25747536983573 C 0.0 **** -0.24
15712 H 59.34006674948462 69.33114419604902 66.90045913350644 H 0.0 **** 0.06
15713 H 60.07141693128767 68.59614314233119 68.34728706477642 H 0.0 **** 0.06
15714 H 61.04491045262871 68.82040576742628 66.87381519510484 H 0.0 **** 0.06
15715 H 59.75023153676153 67.59928605880992 66.90730941511674 H 0.0 **** 0.06
15716 C 110.4714266011773 160.29708592247206 18.636775154686575 C 0.0 **** -0.24
15717 H 110.60878421213046 161.25682885032057 18.138726427627944 H 0.0 **** 0.06
15718 H 110.837847660315 160.36409386841694 19.661604259936382 H 0.0 **** 0.06
15719 H 111.02838018907177 159.52800415872048 18.101055929690176 H 0.0 **** 0.06
15720 H 109.41289662435089 160.03979884840814 18.64565004093413 H 0.0 **** 0.06
15721 C 37.42707951593471 30.576312442026662 196.43278570482528 C 0.0 **** -0.24
15722 H 36.89803589162942 29.861821774206064 197.06346872073942 H 0.0 **** 0.06
15723 H 38.47367601237086 30.282545975924478 196.3476083162388 H 0.0 **** 0.06
15724 H 37.36332542248434 31.56974823311465 196.87718517314806 H 0.0 **** 0.06
15725 H 36.97202709678831 30.592695319957016 195.4418855823049 H 0.0 **** 0.06
15726 C 10.910263339233012 209.70298667042042 40.54369103179869 C 0.0 **** -0.24
15727 H 11.799215856010107 209.18053344378973 40.19091889888921 H 0.0 **** 0.06
15728 H 10.08321477525459 208.99744310779906 40.628148742053156 H 0.0 **** 0.06
15729 H 10.646007622015418 210.48980266251556 39.83676836527542 H 0.0 **** 0.06
15730 H 11.11215030448281 210.14421717026937 41.51981215057111 H 0.0 **** 0.06
15731 C 189.20530733953623 49.68413366782033 49.62049166688861 C 0.0 **** -0.24
15732 H 189.93939363329397 49.94183435970382 48.8575186714192 H 0.0 **** 0.06
15733 H 189.29310655537927 50.37712680131608 50.458573398598176 H 0.0 **** 0.06
15734 H 189.38524753464043 48.66718721890686 49.96882710779559 H 0.0 **** 0.06
15735 H 188.2028418869352 49.75114889156828 49.19695167485715 H 0.0 **** 0.06
15736 C 134.39292741690912 55.50951405623795 80.09501637731933 C 0.0 **** -0.24
15737 H 134.70344374066593 56.531898124203224 80.3102849669607 H 0.0 **** 0.06
15738 H 135.02948124174162 55.09385184659709 79.313190110616 H 0.0 **** 0.06
15739 H 133.35670404147754 55.506936202959196 79.75800065853684 H 0.0 **** 0.06
15740 H 134.48340004258972 54.90448819665016 80.99701446239544 H 0.0 **** 0.06
15741 C 64.90327292488489 121.73399429557979 128.552325647643 C 0.0 **** -0.24
15742 H 65.31402883363612 121.95081209459086 129.53807599676338 H 0.0 **** 0.06
15743 H 64.35886798546144 122.60469485150018 128.18589154466127 H 0.0 **** 0.06
15744 H 64.2251890949061 120.8830714757364 128.62063244196867 H 0.0 **** 0.06
15745 H 65.71564363004126 121.4966288498443 127.8647228292172 H 0.0 **** 0.06
15746 C 115.75396584344479 68.85710370705515 199.98667942002612 C 0.0 **** -0.24
15747 H 115.00808985031064 69.4035447576111 199.407948612525 H 0.0 **** 0.06
15748 H 115.77270643701097 67.81671051588066 199.6613104854572 H 0.0 **** 0.06
15749 H 115.49745193091191 68.90344008912187 201.0445691456859 H 0.0 **** 0.06
15750 H 116.73496153456854 69.30493027854638 199.82943774472864 H 0.0 **** 0.06
15751 C 171.78858520599454 213.12765043194474 132.91712913793805 C 0.0 **** -0.24
15752 H 170.95742169354793 213.14937543499576 132.21237075766885 H 0.0 **** 0.06
15753 H 172.25957040905723 214.10964399793062 132.95322207783454 H 0.0 **** 0.06
15754 H 172.5191544990813 212.38534710898688 132.59510052547682 H 0.0 **** 0.06
15755 H 171.41811676165054 212.8660793171071 133.9088079352709 H 0.0 **** 0.06
15756 C 71.0182114196229 201.3393615832651 109.62737996502757 C 0.0 **** -0.24
15757 H 71.10541049885552 200.79542633112627 110.5687831336824 H 0.0 **** 0.06
15758 H 71.48054711807879 202.32062121586705 109.73117476298002 H 0.0 **** 0.06
15759 H 69.9656333550181 201.45817088862003 109.3733683956856 H 0.0 **** 0.06
15760 H 71.52204260433172 200.78179541967222 108.83771911987147 H 0.0 **** 0.06
15761 C 135.92585466158295 121.17250593050994 189.33086251644224 C 0.0 **** -0.24
15762 H 136.86817400521704 120.74006247557872 188.99333464641308 H 0.0 **** 0.06
15763 H 135.93890124476115 122.24916993395414 189.15980242151235 H 0.0 **** 0.06
15764 H 135.79661697872598 120.97522104262003 190.39590968079676 H 0.0 **** 0.06
15765 H 135.1015956836871 120.72555669954926 188.77598627691282 H 0.0 **** 0.06
15766 C 165.88134090611453 207.04601582394875 64.35204925972427 C 0.0 **** -0.24
15767 H 165.50559261856665 208.06085187947605 64.48601625984877 H 0.0 **** 0.06
15768 H 165.05820379640892 206.33837328942406 64.45467231360536 H 0.0 **** 0.06
15769 H 166.63802858736608 206.83669879982304 65.10803290352978 H 0.0 **** 0.06
15770 H 166.32213120391762 206.95014403440672 63.359496158243886 H 0.0 **** 0.06
15771 C 174.3000502227875 90.1488664133705 148.20835285722404 C 0.0 **** -0.24
15772 H 175.24796014578232 89.7219316320931 148.53592515033512 H 0.0 **** 0.06
15773 H 173.52063799146225 89.89533391164689 148.9274522897328 H 0.0 **** 0.06
15774 H 174.0378799465658 89.7438037213105 147.23043664617705 H 0.0 **** 0.06
15775 H 174.3939342013342 91.23203115686404 148.14019825354586 H 0.0 **** 0.06
15776 C 26.1508763948344 209.6858596246047 150.63817816532998 C 0.0 **** -0.24
15777 H 27.23329351859013 209.7635465295962 150.53956762069578 H 0.0 **** 0.06
15778 H 25.78759137407485 210.47793321548576 151.293509050502 H 0.0 **** 0.06
15779 H 25.89362349906054 208.71559935980036 151.06481867946843 H 0.0 **** 0.06
15780 H 25.688561558429797 209.7848151359401 149.6566681475956 H 0.0 **** 0.06
15781 C 116.51873330335526 123.26344970011053 76.60483689799901 C 0.0 **** -0.24
15782 H 117.16834842262848 123.13128529759189 77.47006051290083 H 0.0 **** 0.06
15783 H 117.10929000858964 123.17683423339298 75.69166401727352 H 0.0 **** 0.06
15784 H 116.05567032034538 124.2493289280506 76.64603104804854 H 0.0 **** 0.06
15785 H 115.74453065956816 122.49708122604596 76.61145068065338 H 0.0 **** 0.06
15786 C 61.830647315820926 48.67289383394166 75.95944843160474 C 0.0 **** -0.24
15787 H 61.22264578765747 49.271841461633755 76.63708108209467 H 0.0 **** 0.06
15788 H 61.960386769129414 47.67270530707469 76.37577374057297 H 0.0 **** 0.06
15789 H 62.805340745069245 49.14352231897686 75.83362445947277 H 0.0 **** 0.06
15790 H 61.333589931050696 48.60185774805535 74.99268944186981 H 0.0 **** 0.06
15791 C 6.809223609956518 147.03456404981415 145.00110017947696 C 0.0 **** -0.24
15792 H 5.738470779766089 146.83394113611166 145.03049323490217 H 0.0 **** 0.06
15793 H 7.259319129274161 146.73942662034773 145.9488079685484 H 0.0 **** 0.06
15794 H 6.975534731493553 148.09852813999322 144.83493716151457 H 0.0 **** 0.06
15795 H 7.263589040636532 146.46416034150843 144.18976249695305 H 0.0 **** 0.06
15796 C 90.54078503516543 74.71588043826341 125.26704013661096 C 0.0 **** -0.24
15797 H 91.53009953090533 74.9698057149032 125.64876508100922 H 0.0 **** 0.06
15798 H 90.54271525195288 73.68512966688866 124.9123145225618 H 0.0 **** 0.06
15799 H 90.28706071125639 75.3828560671646 124.44317327075898 H 0.0 **** 0.06
15800 H 89.80533924632671 74.82487911808255 126.0629219643398 H 0.0 **** 0.06
15801 C 111.1045454279312 139.33155778608267 146.2163544843442 C 0.0 **** -0.24
15802 H 111.26390355910651 138.33535410517277 146.62959697614343 H 0.0 **** 0.06
15803 H 111.13678902996675 140.06760506084134 147.02058450202583 H 0.0 **** 0.06
15804 H 110.13261033259577 139.37049896325618 145.72650261041633 H 0.0 **** 0.06
15805 H 111.88703390480494 139.5515959950398 145.4901375011275 H 0.0 **** 0.06
15806 C 118.85779672410025 56.783929412682994 68.85648070721538 C 0.0 **** -0.24
15807 H 118.45100428814327 57.50342289613599 69.56717486102536 H 0.0 **** 0.06
15808 H 118.11189717219808 56.016348844059394 68.65035437545279 H 0.0 **** 0.06
15809 H 119.74977203620496 56.319817259801084 69.27957658461821 H 0.0 **** 0.06
15810 H 119.11888191787507 57.295777482154705 67.93075115948926 H 0.0 **** 0.06
15811 C 197.4897863366133 105.93676952906888 131.0748099232831 C 0.0 **** -0.24
15812 H 197.16223656803612 106.48954501955949 131.95529078211604 H 0.0 **** 0.06
15813 H 196.8497816761166 106.18874040903277 130.22936575426172 H 0.0 **** 0.06
15814 H 197.42715751163624 104.86736495072618 131.27300829162778 H 0.0 **** 0.06
15815 H 198.52133694278893 106.20324319455158 130.84248840964335 H 0.0 **** 0.06
15816 C 145.11716585420197 103.40441669874137 171.67355013513367 C 0.0 **** -0.24
15817 H 144.97363319315406 103.21569763190028 170.60954983943148 H 0.0 **** 0.06
15818 H 145.39605508042155 102.47601799085838 172.17207774477552 H 0.0 **** 0.06
15819 H 144.1904110108208 103.78419122006572 172.10363141743494 H 0.0 **** 0.06
15820 H 145.90856413241164 104.14175995214104 171.80894153889278 H 0.0 **** 0.06
15821 C 194.50063269195485 66.01821404391734 161.12830820024485 C 0.0 **** -0.24
15822 H 193.7803265200868 66.24071443724927 161.91510342035684 H 0.0 **** 0.06
15823 H 194.0794354235852 65.27704151457522 160.44812417998315 H 0.0 **** 0.06
15824 H 195.41524083658902 65.62572235659792 161.5736028963754 H 0.0 **** 0.06
15825 H 194.72807985357792 66.93066167593878 160.57618478866254 H 0.0 **** 0.06
15826 C 100.88169740048717 193.49258735935695 151.07868156988997 C 0.0 **** -0.24
15827 H 100.51289420317615 193.19691418831437 150.09747736994115 H 0.0 **** 0.06
15828 H 100.7577212640321 192.6651050060584 151.7772923414256 H 0.0 **** 0.06
15829 H 100.32007360174073 194.35606357876102 151.43392324639342 H 0.0 **** 0.06
15830 H 101.93878747754543 193.75160005471832 151.0071892254383 H 0.0 **** 0.06
15831 C 120.76359265174368 105.97916596624144 27.894853263962716 C 0.0 **** -0.24
15832 H 120.54712379210655 106.81162266293425 28.565305528280533 H 0.0 **** 0.06
15833 H 120.59605637291487 106.29141882217444 26.863960985690596 H 0.0 **** 0.06
15834 H 120.10824722506125 105.14176545701126 28.13250191246007 H 0.0 **** 0.06
15835 H 121.80277529022793 105.67465637874399 28.01870999313695 H 0.0 **** 0.06
15836 C 77.04934155647466 197.8509687785219 200.96513829837383 C 0.0 **** -0.24
15837 H 77.62311475563324 196.92367354004128 200.94813785863488 H 0.0 **** 0.06
15838 H 77.36379835362307 198.4876355680746 200.13830732734687 H 0.0 **** 0.06
15839 H 77.22316837381614 198.3681155087476 201.90912433900098 H 0.0 **** 0.06
15840 H 75.98859752306946 197.62253414925382 200.86576104884676 H 0.0 **** 0.06
15841 C 200.04201566453392 5.847721529082477 110.48507757549572 C 0.0 **** -0.24
15842 H 199.56788112697632 6.312669910528257 109.62030674370067 H 0.0 **** 0.06
15843 H 201.12337214676683 5.851855039272564 110.35211069655548 H 0.0 **** 0.06
15844 H 199.69052940494691 4.82015300711209 110.5829013660807 H 0.0 **** 0.06
15845 H 199.7832628181116 6.406700942101253 111.38418274834413 H 0.0 **** 0.06
15846 C 208.11930026078275 6.298629405325215 146.59554885978383 C 0.0 **** -0.24
15847 H 209.1839639156815 6.076073121178666 146.52917018955822 H 0.0 **** 0.06
15848 H 207.84561875144357 7.0019014381631735 145.8081474122862 H 0.0 **** 0.06
15849 H 207.90017311397696 6.7386131317808236 147.56849477438726 H 0.0 **** 0.06
15850 H 207.54823331556634 5.378588379123187 146.4754107201108 H 0.0 **** 0.06
15851 C 8.446260383646745 122.43041915159064 78.15328998901452 C 0.0 **** -0.24
15852 H 7.962903360408006 122.09528896263255 77.23511359185107 H 0.0 **** 0.06
15853 H 9.191814123345921 121.69594951316411 78.46000994214273 H 0.0 **** 0.06
15854 H 7.697791737584083 122.53956301385271 78.93740823295087 H 0.0 **** 0.06
15855 H 8.932961618662375 123.39016051022766 77.97774631698326 H 0.0 **** 0.06
15856 C 177.14966637296664 71.72209225831568 147.34509694844508 C 0.0 **** -0.24
15857 H 177.00797675313356 70.80970418494394 146.76650108060682 H 0.0 **** 0.06
15858 H 177.81494378084972 72.39478393453771 146.80411819630945 H 0.0 **** 0.06
15859 H 177.58990060925896 71.47437174019097 148.31054165654365 H 0.0 **** 0.06
15860 H 176.18630861406848 72.20732349636694 147.4991410849263 H 0.0 **** 0.06
15861 C 204.24806086834099 77.39916043672224 78.60651639449878 C 0.0 **** -0.24
15862 H 203.53536611577297 77.05904005098404 79.35833915436353 H 0.0 **** 0.06
15863 H 205.00687198784112 76.63272394915026 78.4526108656018 H 0.0 **** 0.06
15864 H 204.72279086113056 78.31899041030886 78.94747149943305 H 0.0 **** 0.06
15865 H 203.72475355300782 77.58677103568164 77.66911474744211 H 0.0 **** 0.06
15866 C 34.37377812443697 186.96320707312177 121.09130284838407 C 0.0 **** -0.24
15867 H 34.208148766651846 186.21724519988447 121.86898462519538 H 0.0 **** 0.06
15868 H 33.82411570692892 187.8715918050762 121.33790686748573 H 0.0 **** 0.06
15869 H 34.023301701188075 186.57421988661756 120.13570441349388 H 0.0 **** 0.06
15870 H 35.43795865148235 187.18785752459817 121.0252263487176 H 0.0 **** 0.06
15871 C 102.25776671036563 43.53707250420911 132.42883512864927 C 0.0 **** -0.24
15872 H 101.98697183710188 42.579156979825214 132.87429011264783 H 0.0 **** 0.06
15873 H 101.35366450552768 44.06283637063362 132.12084534550218 H 0.0 **** 0.06
15874 H 102.89345818155151 43.36545987302519 131.55955288815068 H 0.0 **** 0.06
15875 H 102.7974134474657 44.13865998295182 133.160910983644 H 0.0 **** 0.06
15876 C 68.67849393805977 132.15181135804607 116.43843695510681 C 0.0 **** -0.24
15877 H 68.35852885565055 131.93940437947458 117.45838634251625 H 0.0 **** 0.06
15878 H 69.68735788635456 131.76736988296614 116.28748190355624 H 0.0 **** 0.06
15879 H 68.67121691602313 133.22976712395894 116.27338978506084 H 0.0 **** 0.06
15880 H 67.99731420604581 131.6716688995021 115.73645795574369 H 0.0 **** 0.06
15881 C 81.93460108390495 140.00812503754855 164.68155372244496 C 0.0 **** -0.24
15882 H 81.91672540934822 140.21326310368647 163.6112939565084 H 0.0 **** 0.06
15883 H 81.909811546278 140.9488928154641 165.23183238791123 H 0.0 **** 0.06
15884 H 82.84534571486124 139.46379634725696 164.930689480519 H 0.0 **** 0.06
15885 H 81.06644941873331 139.40570241192 164.95033023847722 H 0.0 **** 0.06
15886 C 76.26312795911866 4.164675254325765 211.81009971687894 C 0.0 **** -0.24
15887 H 76.37146831886417 5.246982898738295 211.7537735647867 H 0.0 **** 0.06
15888 H 76.01436388485558 3.77200989775411 210.82368068495646 H 0.0 **** 0.06
15889 H 75.46703287176587 3.914637827703757 212.51204846811447 H 0.0 **** 0.06
15890 H 77.20009983816482 3.722885206326815 212.15075556319687 H 0.0 **** 0.06
15891 C 89.38621004254297 47.964118152424234 115.583050001252 C 0.0 **** -0.24
15892 H 89.8285428608673 46.96864932047556 115.62360393819871 H 0.0 **** 0.06
15893 H 89.39549907438821 48.40688432099056 116.5797069098286 H 0.0 **** 0.06
15894 H 88.35919171883523 47.89210795137451 115.22536015397806 H 0.0 **** 0.06
15895 H 89.96434304618718 48.58961414148551 114.90215121917267 H 0.0 **** 0.06
15896 C 150.07793441790653 147.6418173160239 33.08500760883703 C 0.0 **** -0.24
15897 H 149.93910708599083 148.7005827673567 32.8626748525229 H 0.0 **** 0.06
15898 H 150.70047274487752 147.18840713561735 32.313615764355234 H 0.0 **** 0.06
15899 H 149.10767847440349 147.14580152833486 33.10862703197154 H 0.0 **** 0.06
15900 H 150.56372259865395 147.53511487959742 34.054424729555365 H 0.0 **** 0.06
15901 C 161.2476503413135 208.4034365948472 73.76511330385397 C 0.0 **** -0.24
15902 H 161.04094565128025 207.36926039733942 73.49166516990569 H 0.0 **** 0.06
15903 H 160.8232514664586 208.6114592790349 74.74748914864985 H 0.0 **** 0.06
15904 H 160.80160310253072 209.07005604309748 73.02756500351096 H 0.0 **** 0.06
15905 H 162.3263206345297 208.5625705227388 73.79300513234129 H 0.0 **** 0.06
15906 C 18.097901317566453 183.77375138099666 213.34315278003453 C 0.0 **** -0.24
15907 H 17.158007381391897 183.26816894431667 213.5654947036934 H 0.0 **** 0.06
15908 H 17.896201131805967 184.8067767616774 213.06088035059904 H 0.0 **** 0.06
15909 H 18.600138079442985 183.26312658352026 212.52170912287107 H 0.0 **** 0.06
15910 H 18.736681065958308 183.75640646622156 214.22662192858712 H 0.0 **** 0.06
15911 C 6.993589419427295 162.09020611202723 57.40351493496574 C 0.0 **** -0.24
15912 H 7.796278562796687 161.65531128435646 57.998104495604565 H 0.0 **** 0.06
15913 H 6.692358704016044 161.38327088527055 56.62970630369233 H 0.0 **** 0.06
15914 H 7.344139092781006 163.01116319097997 56.938001115699976 H 0.0 **** 0.06
15915 H 6.142051288088894 162.30948182402008 58.04777040634923 H 0.0 **** 0.06
15916 C 45.612667466880495 47.68309300968629 160.43072859015882 C 0.0 **** -0.24
15917 H 45.91480688792019 46.63899334494397 160.35685859330948 H 0.0 **** 0.06
15918 H 46.48214975562031 48.32386315961688 160.28525249178716 H 0.0 **** 0.06
15919 H 45.18367954254977 47.86904016421603 161.41473018172587 H 0.0 **** 0.06
15920 H 44.868645038225466 47.90034339010779 159.66361252742394 H 0.0 **** 0.06
15921 C 145.92393066851685 174.3684926697277 111.8302578011806 C 0.0 **** -0.24
15922 H 145.15215010535275 174.0909451402013 111.11213227414756 H 0.0 **** 0.06
15923 H 146.5860569561096 175.10995363014436 111.38409466347109 H 0.0 **** 0.06
15924 H 146.49872568331847 173.48402894146682 112.1040327686297 H 0.0 **** 0.06
15925 H 145.45533697949344 174.78821107580626 112.72139223589018 H 0.0 **** 0.06
15926 C 28.978150037772238 114.07688126592244 53.408200019745834 C 0.0 **** -0.24
15927 H 28.483065339691237 113.11665383686527 53.55125090059448 H 0.0 **** 0.06
15928 H 30.05349458562216 113.95330304867504 53.53470557880661 H 0.0 **** 0.06
15929 H 28.604864233339228 114.79102520173144 54.14176274569115 H 0.0 **** 0.06
15930 H 28.77052983509978 114.4460369872139 52.40392912062384 H 0.0 **** 0.06
15931 C 159.44241462124498 7.417125716499271 137.31007534611604 C 0.0 **** -0.24
15932 H 158.7857432594913 6.639306421743498 137.69937856791728 H 0.0 **** 0.06
15933 H 159.98746509402417 7.0336620651919475 136.44813002912616 H 0.0 **** 0.06
15934 H 160.1493349243705 7.715786071482853 138.08453698145001 H 0.0 **** 0.06
15935 H 158.8466255943005 8.279473320743762 137.01042023344638 H 0.0 **** 0.06
15936 C 7.888250242183716 190.24704223177685 11.301813634979453 C 0.0 **** -0.24
15937 H 7.781395251573599 190.47857335666242 10.241486088193852 H 0.0 **** 0.06
15938 H 8.947043912477852 190.19426535777944 11.557163821488786 H 0.0 **** 0.06
15939 H 7.415290956548404 189.2885662436766 11.513566830551596 H 0.0 **** 0.06
15940 H 7.409969065776409 191.0271856263069 11.893882494040383 H 0.0 **** 0.06
15941 C 83.91430985645765 166.148285098312 173.07473685975333 C 0.0 **** -0.24
15942 H 84.15781837516421 165.1015278626455 173.2587125106652 H 0.0 **** 0.06
15943 H 84.80397635592188 166.67022453636193 172.7223849348197 H 0.0 **** 0.06
15944 H 83.56579972207679 166.60769583198362 173.99916348387694 H 0.0 **** 0.06
15945 H 83.131545047562 166.21140321650904 172.3190745757534 H 0.0 **** 0.06
15946 C 194.33440672825293 213.4197705612197 183.9904830062777 C 0.0 **** -0.24
15947 H 194.43888857984876 214.23529952721952 184.70599344123588 H 0.0 **** 0.06
15948 H 193.93783894803744 212.54004474052823 184.4982118980147 H 0.0 **** 0.06
15949 H 195.3093386318336 213.18400223414437 183.56394905168008 H 0.0 **** 0.06
15950 H 193.6524573677999 213.72005387129988 183.19580123531287 H 0.0 **** 0.06
15951 C 141.22298120162162 75.11711637463884 203.75482833664176 C 0.0 **** -0.24
15952 H 142.1385250225046 75.26318771692081 203.18126419989073 H 0.0 **** 0.06
15953 H 141.29572668585735 74.19286580284637 204.32635443318088 H 0.0 **** 0.06
15954 H 140.37401335551596 75.05799583381145 203.0727766397772 H 0.0 **** 0.06
15955 H 141.08348893268487 75.95646912454049 204.43579456028542 H 0.0 **** 0.06
15956 C 102.7265277761244 215.55035836232818 214.38161724130163 C 0.0 **** -0.24
15957 H 102.78177259493377 216.36395590181928 215.1048234283559 H 0.0 **** 0.06
15958 H 102.10805844870735 215.85645419886447 213.53710247611295 H 0.0 **** 0.06
15959 H 102.28519144200628 214.6730892943158 214.85523984341756 H 0.0 **** 0.06
15960 H 103.72873296127803 215.30860558363287 214.0293084584146 H 0.0 **** 0.06
15961 C 58.93693125690872 135.72621318671094 189.97783619755276 C 0.0 **** -0.24
15962 H 58.59029893305866 134.7141698838758 190.18750385371325 H 0.0 **** 0.06
15963 H 58.24906778332411 136.44555843644991 190.4212765832326 H 0.0 **** 0.06
15964 H 58.97752761242022 135.87912999866955 188.89899907589063 H 0.0 **** 0.06
15965 H 59.93113724920886 135.86516991251938 190.40245792231116 H 0.0 **** 0.06
15966 C 8.950418712370492 176.5423502508695 114.13471466586803 C 0.0 **** -0.24
15967 H 9.243569917536604 176.34351353878577 113.10345937058402 H 0.0 **** 0.06
15968 H 8.067565027162743 175.95213752098954 114.38137526160212 H 0.0 **** 0.06
15969 H 8.722565697633627 177.60230618621324 114.24926842174243 H 0.0 **** 0.06
15970 H 9.766887837536729 176.2724028221337 114.80305264717826 H 0.0 **** 0.06
15971 C 121.28585977579662 121.29133344533909 117.3638513267456 C 0.0 **** -0.24
15972 H 120.90689321922731 121.00611493434201 116.3826251137781 H 0.0 **** 0.06
15973 H 120.61828607187938 120.9097924378732 118.1363239433499 H 0.0 **** 0.06
15974 H 121.33506368809101 122.37909093865505 117.43164353516899 H 0.0 **** 0.06
15975 H 122.282588807957 120.87270180645362 117.50463460511484 H 0.0 **** 0.06
15976 C 114.5387650975991 115.49469955288644 176.82782880002162 C 0.0 **** -0.24
15977 H 114.10482742566457 116.3930934813924 176.38949950219694 H 0.0 **** 0.06
15978 H 113.84082903606581 115.06823112713131 177.54907154056644 H 0.0 **** 0.06
15979 H 115.47064217299759 115.74984014690206 177.3313906261447 H 0.0 **** 0.06
15980 H 114.73883641980656 114.76687216439431 176.0407094216195 H 0.0 **** 0.06
15981 C 117.24176799044182 204.1557776795551 32.85890482271617 C 0.0 **** -0.24
15982 H 116.48236060382322 204.93498121218468 32.79559282905382 H 0.0 **** 0.06
15983 H 118.06298746761155 204.4991735404031 33.48901990043203 H 0.0 **** 0.06
15984 H 117.61729045918509 203.9337145370887 31.86027527969034 H 0.0 **** 0.06
15985 H 116.80239302440157 203.25578690977926 33.2899969280428 H 0.0 **** 0.06
15986 C 55.445888065204315 189.5703064679486 184.7963839664118 C 0.0 **** -0.24
15987 H 54.80177817853428 190.0249645114909 184.04405847486692 H 0.0 **** 0.06
15988 H 56.360990428545705 190.15505359847933 184.89214200278406 H 0.0 **** 0.06
15989 H 55.69470698979083 188.55252243157483 184.49301296582726 H 0.0 **** 0.06
15990 H 54.92653867478046 189.54764357270182 185.75415415352913 H 0.0 **** 0.06
15991 C 213.5950040300845 201.98823370572222 209.0136305133775 C 0.0 **** -0.24
15992 H 214.24660020433174 202.33966249548055 209.814553351578 H 0.0 **** 0.06
15993 H 212.55996335465497 202.23296090922636 209.25447600628726 H 0.0 **** 0.06
15994 H 213.69839328335922 200.90846899268035 208.90981360319927 H 0.0 **** 0.06
15995 H 213.87634965301987 202.4722012250401 208.07871329441917 H 0.0 **** 0.06
15996 C 25.705429256927573 116.48410892509924 205.13373649609275 C 0.0 **** -0.24
15997 H 25.591053614020154 115.52373706225723 205.6361996589307 H 0.0 **** 0.06
15998 H 25.831022742187827 117.27061842915919 205.87861046656315 H 0.0 **** 0.06
15999 H 24.817646057191496 116.68918486430948 204.53448195356566 H 0.0 **** 0.06
16000 H 26.581368809989726 116.4535896866056 204.4867151744233 H 0.0 **** 0.06
16001 C 192.52505982534984 125.41437487853678 85.80616102419043 C 0.0 **** -0.24
16002 H 193.40326635530207 125.21669942359613 85.19188190648907 H 0.0 **** 0.06
16003 H 192.67069988627324 124.98141530090474 86.79658575072807 H 0.0 **** 0.06
16004 H 191.6475228381704 124.96775905800821 85.33914038878436 H 0.0 **** 0.06
16005 H 192.3808547526921 126.49088850119578 85.89720195774504 H 0.0 **** 0.06
16006 C 24.705059456937462 56.25523501719333 93.76705151330201 C 0.0 **** -0.24
16007 H 25.40005430559731 55.431621599198905 93.6093200863 H 0.0 **** 0.06
16008 H 25.155642939535824 57.18359037023899 93.41310796559632 H 0.0 **** 0.06
16009 H 24.479960139674603 56.34336870016726 94.82983130477744 H 0.0 **** 0.06
16010 H 23.784282144118734 56.06474858805147 93.2154962567652 H 0.0 **** 0.06
16011 C 202.44047532061774 29.006463896571702 150.45130716532924 C 0.0 **** -0.24
16012 H 202.80503941599855 28.24266992538682 151.13838353008265 H 0.0 **** 0.06
16013 H 201.35317742377117 28.95016598812245 150.39031550451136 H 0.0 **** 0.06
16014 H 202.86961531635578 28.84043871902807 149.46336200725858 H 0.0 **** 0.06
16015 H 202.73373134333187 29.99109600170317 150.81480496634282 H 0.0 **** 0.06
16016 C 97.88211411439205 18.543081965545213 194.37309221717246 C 0.0 **** -0.24
16017 H 98.28360460268108 19.26094720153293 195.08758994935445 H 0.0 **** 0.06
16018 H 96.91350375961001 18.891223512909477 194.0139034287376 H 0.0 **** 0.06
16019 H 97.76269725427026 17.57426195166198 194.85894151970464 H 0.0 **** 0.06
16020 H 98.56780336820891 18.444774471201242 193.53209459314814 H 0.0 **** 0.06
16021 C 60.89576951671643 127.14615903086748 74.38755974269185 C 0.0 **** -0.24
16022 H 61.177304139121574 127.92029294712636 75.10233250063811 H 0.0 **** 0.06
16023 H 61.77602515689752 126.83777556486872 73.82237587509263 H 0.0 **** 0.06
16024 H 60.14378791451857 127.54000702837406 73.7033283690264 H 0.0 **** 0.06
16025 H 60.488283996469406 126.28869654495342 74.92240435551298 H 0.0 **** 0.06
16026 C 210.82681455875823 94.68792123902217 59.60699551292305 C 0.0 **** -0.24
16027 H 211.0752968998301 94.33826687306792 58.60437668874846 H 0.0 **** 0.06
16028 H 211.3469438212432 95.62559232366247 59.80295118386579 H 0.0 **** 0.06
16029 H 211.13437641656753 93.94023949918538 60.338379723648984 H 0.0 **** 0.06
16030 H 209.75084947419126 94.8465123065276 59.67948100680479 H 0.0 **** 0.06
16031 C 30.620124265180834 200.44652185980482 141.75994327171213 C 0.0 **** -0.24
16032 H 30.491749617740965 200.0080833085139 140.77028639998878 H 0.0 **** 0.06
16033 H 30.672847355289463 199.6519034026153 142.5041736926803 H 0.0 **** 0.06
16034 H 29.774438366066136 201.09766342456004 141.98077614187662 H 0.0 **** 0.06
16035 H 31.54249054412105 201.0273580611852 141.78157426109345 H 0.0 **** 0.06
16036 C 113.85794616234405 122.22581501657798 180.54747725701176 C 0.0 **** -0.24
16037 H 112.8930905325616 122.73200985235464 180.58504781534577 H 0.0 **** 0.06
16038 H 114.65707578465181 122.96023271423594 180.6531070174044 H 0.0 **** 0.06
16039 H 113.96103192852281 121.71161873859732 179.59177350891477 H 0.0 **** 0.06
16040 H 113.91997228451594 121.50153293362759 181.3597194390464 H 0.0 **** 0.06
16041 C 30.72564441275574 100.20314406104207 104.33580879534584 C 0.0 **** -0.24
16042 H 30.02552462936316 100.21466224525001 105.17112236287109 H 0.0 **** 0.06
16043 H 30.272117328773746 99.68680753934576 103.48917136776937 H 0.0 **** 0.06
16044 H 31.636255393237676 99.68378787008841 104.6320365825891 H 0.0 **** 0.06
16045 H 30.96727851269428 101.22740026958472 104.05107325934715 H 0.0 **** 0.06
16046 C 130.6830785971619 189.91444237070897 106.26972656054568 C 0.0 **** -0.24
16047 H 131.4223194355941 190.71578399588577 106.26694659507609 H 0.0 **** 0.06
16048 H 131.0320887738821 189.09694168543575 105.63840519023643 H 0.0 **** 0.06
16049 H 129.73600211319308 190.29229661033918 105.88390606867381 H 0.0 **** 0.06
16050 H 130.54268691605398 189.55251642971672 107.28849342983966 H 0.0 **** 0.06
16051 C 80.61963697600315 207.26453038328327 206.30736638187125 C 0.0 **** -0.24
16052 H 81.02918608757894 208.1891334982821 206.71535873248098 H 0.0 **** 0.06
16053 H 80.03685060200407 207.48769332367428 205.4144299571943 H 0.0 **** 0.06
16054 H 79.97911287232883 206.7912477735689 207.05243658162297 H 0.0 **** 0.06
16055 H 81.43602245347908 206.58905159725762 206.04971484187848 H 0.0 **** 0.06
16056 C 104.75598101527379 103.94077130845396 50.44079458215383 C 0.0 **** -0.24
16057 H 105.74670882393792 104.03731020715666 49.99823637875957 H 0.0 **** 0.06
16058 H 104.3131517158024 102.99202411644292 50.13719926153736 H 0.0 **** 0.06
16059 H 104.12448262616721 104.7618589744133 50.100822563136006 H 0.0 **** 0.06
16060 H 104.8383023077539 103.97152359602886 51.52802899435045 H 0.0 **** 0.06
16061 C 137.8974420384577 121.6399493778564 23.660911677579804 C 0.0 **** -0.24
16062 H 138.0950476283374 121.48828066915246 22.59954521028567 H 0.0 **** 0.06
16063 H 137.76284658701553 122.70434997927333 23.855972124479052 H 0.0 **** 0.06
16064 H 138.73893428310828 121.26620201444956 24.244429329723914 H 0.0 **** 0.06
16065 H 136.99256524767634 121.10129020966656 23.942040524854463 H 0.0 **** 0.06
16066 C 40.144878854354005 163.5249715203249 13.21516573528828 C 0.0 **** -0.24
16067 H 39.071912635441294 163.71959580841107 13.23020028059753 H 0.0 **** 0.06
16068 H 40.55780838944318 163.69287319921975 14.210007615782104 H 0.0 **** 0.06
16069 H 40.62555872429033 164.1955901253727 12.503995812226663 H 0.0 **** 0.06
16070 H 40.321761805984266 162.49106903924144 12.917601911411907 H 0.0 **** 0.06
16071 C 203.95474204767578 26.51430137502011 147.75590712927044 C 0.0 **** -0.24
16072 H 204.62537767508127 27.37401522617772 147.72920299159244 H 0.0 **** 0.06
16073 H 203.81287861722785 26.13303235620802 146.74534401111322 H 0.0 **** 0.06
16074 H 202.9925889366179 26.818451023837767 148.16873460936552 H 0.0 **** 0.06
16075 H 204.38875577392707 25.73519292226908 148.38245580112567 H 0.0 **** 0.06
16076 C 116.09673734096738 109.94536292582877 116.89812102884055 C 0.0 **** -0.24
16077 H 116.81637259505801 109.20684179154311 117.25268525042226 H 0.0 **** 0.06
16078 H 116.43644201052315 110.35321256424184 115.94589702534286 H 0.0 **** 0.06
16079 H 116.01147415300822 110.74922174224888 117.62866966701036 H 0.0 **** 0.06
16080 H 115.1247945782754 109.47031780968145 116.76423472218544 H 0.0 **** 0.06
16081 C 150.37312122150087 0.05452855095817455 214.40215769950805 C 0.0 **** -0.24
16082 H 150.93709445476833 0.9434698062984381 214.12150354308122 H 0.0 **** 0.06
16083 H 150.1124439930208 0.10760789387419578 215.45929208357143 H 0.0 **** 0.06
16084 H 150.9796392343685 -0.8330714559160484 214.2215524167894 H 0.0 **** 0.06
16085 H 149.46188130291614 -0.00018894102662869727 213.80534536063993 H 0.0 **** 0.06
16086 C 101.40170501962929 168.43600476894596 21.681399938098934 C 0.0 **** -0.24
16087 H 101.226002551045 169.27605683841756 22.35404792569858 H 0.0 **** 0.06
16088 H 101.17496997564295 167.50396286271933 22.198814894293207 H 0.0 **** 0.06
16089 H 102.4455119593638 168.43473231800883 21.367483405118435 H 0.0 **** 0.06
16090 H 100.75868457577467 168.53252140186274 20.806080339434345 H 0.0 **** 0.06
16091 C 134.07183349426145 162.4541901267268 8.820694803692163 C 0.0 **** -0.24
16092 H 133.7031102723356 161.83605553794712 9.63973324323905 H 0.0 **** 0.06
16093 H 133.61539262832122 163.44168322015548 8.876990792675372 H 0.0 **** 0.06
16094 H 133.81374993540823 161.98716031058305 7.869723100348267 H 0.0 **** 0.06
16095 H 135.1551006561756 162.54840149340288 8.896501206846096 H 0.0 **** 0.06
16096 C 56.303788785891356 101.88379920964968 117.48173029358252 C 0.0 **** -0.24
16097 H 55.882825639285215 100.97316529248656 117.05503480254517 H 0.0 **** 0.06
16098 H 56.29560960208971 101.81213012024193 118.56924386849575 H 0.0 **** 0.06
16099 H 55.70795528900979 102.7407502923756 117.1680052269288 H 0.0 **** 0.06
16100 H 57.32999025722469 102.00619717144122 117.1333060707971 H 0.0 **** 0.06
16101 C 94.90226338358438 6.453380501715401 201.03848817897276 C 0.0 **** -0.24
16102 H 93.99492722227801 6.0620285017171796 200.57889397606985 H 0.0 **** 0.06
16103 H 95.53349269268132 6.903118185364633 200.2713827560258 H 0.0 **** 0.06
16104 H 95.44334151892956 5.641510715202287 201.52300651025192 H 0.0 **** 0.06
16105 H 94.6375434640728 7.20747143897799 201.779915427598 H 0.0 **** 0.06
16106 C 125.04741565093497 170.22053020961974 211.99923212020826 C 0.0 **** -0.24
16107 H 124.06608858176486 170.64959717064312 211.79807334251717 H 0.0 **** 0.06
16108 H 125.16724826021039 169.30224262237846 211.4246703887352 H 0.0 **** 0.06
16109 H 125.13629472680924 169.99784898154903 213.06269614073454 H 0.0 **** 0.06
16110 H 125.82060295861919 170.93297661319966 211.71210211218047 H 0.0 **** 0.06
16111 C 155.7761743080709 15.230115496242092 13.025803660504494 C 0.0 **** -0.24
16112 H 155.3174726005505 15.335463269937321 12.042402554697219 H 0.0 **** 0.06
16113 H 156.1867661022377 14.22552382132504 13.128249182647522 H 0.0 **** 0.06
16114 H 155.02435390868987 15.396699394642312 13.797182962122207 H 0.0 **** 0.06
16115 H 156.5760645466861 15.962630158176694 13.133148943932397 H 0.0 **** 0.06
16116 C 55.49546116872392 23.721726808848715 40.993428717429964 C 0.0 **** -0.24
16117 H 55.9823392146418 24.68802722688018 41.129801107963175 H 0.0 **** 0.06
16118 H 54.574594292341374 23.695568550744895 41.57542276054477 H 0.0 **** 0.06
16119 H 56.16198496037015 22.92824610820351 41.33056598885412 H 0.0 **** 0.06
16120 H 55.263973790945556 23.57781274423995 39.93852044838397 H 0.0 **** 0.06
16121 C 72.29811973450514 63.09898961825458 63.570756727719754 C 0.0 **** -0.24
16122 H 73.2350322434932 63.28117232524066 63.04366512219141 H 0.0 **** 0.06
16123 H 72.1756987077835 63.840337527849016 64.36041583552543 H 0.0 **** 0.06
16124 H 72.31645179480667 62.101140394861076 64.00732857142059 H 0.0 **** 0.06
16125 H 71.4669136878159 63.17376530150564 62.86842755282025 H 0.0 **** 0.06
16126 C 57.701904507225436 178.16012305354312 211.17976305753885 C 0.0 **** -0.24
16127 H 58.60067140781388 178.77106477441532 211.0979804048244 H 0.0 **** 0.06
16128 H 57.510549628477236 177.9329742802375 212.22808594025696 H 0.0 **** 0.06
16129 H 57.84296248216282 177.2314620298711 210.62609031994447 H 0.0 **** 0.06
16130 H 56.85462662420838 178.70523390481915 210.7641532891516 H 0.0 **** 0.06
16131 C 32.52088619974536 145.27234389516798 157.35413998280995 C 0.0 **** -0.24
16132 H 31.648840166798053 144.69896476702712 157.66812600737757 H 0.0 **** 0.06
16133 H 32.27588943287334 146.33429922637742 157.35337198749295 H 0.0 **** 0.06
16134 H 32.81318857813005 144.9660850946142 156.34945843519967 H 0.0 **** 0.06
16135 H 33.34464837723583 145.0890664775975 158.04454451074218 H 0.0 **** 0.06
16136 C 10.216535829805196 82.99223562783982 36.69223028885776 C 0.0 **** -0.24
16137 H 10.796522571440306 83.65822381113583 36.05259971423351 H 0.0 **** 0.06
16138 H 9.39364327898977 82.56439618039553 36.119871670122166 H 0.0 **** 0.06
16139 H 9.81837903631532 83.55676641756179 37.535723206499625 H 0.0 **** 0.06
16140 H 10.857981929270807 82.19253115213814 37.060773051204876 H 0.0 **** 0.06
16141 C 6.8528404614625344 50.763953751986165 159.00348720952482 C 0.0 **** -0.24
16142 H 7.426962801313934 49.86159550091783 158.79379634712012 H 0.0 **** 0.06
16143 H 5.8041808879875845 50.50242581203358 159.1449416972087 H 0.0 **** 0.06
16144 H 6.945657850008288 51.456289802346305 158.16639350387578 H 0.0 **** 0.06
16145 H 7.234560306540445 51.23550389264692 159.90881728989467 H 0.0 **** 0.06
16146 C 178.15574162213645 138.11037176050098 195.63468499631443 C 0.0 **** -0.24
16147 H 177.67433245224498 137.5875158832102 196.46022545854038 H 0.0 **** 0.06
16148 H 178.07180718468095 139.1864160228672 195.78717726971055 H 0.0 **** 0.06
16149 H 177.66760443171037 137.8370956492172 194.69853895656308 H 0.0 **** 0.06
16150 H 179.207953306406 137.83030543357842 195.59096371512476 H 0.0 **** 0.06
16151 C 6.8454722632992855 127.88449023955137 69.16577557104375 C 0.0 **** -0.24
16152 H 7.175477921946197 127.91293590052045 70.20412871072936 H 0.0 **** 0.06
16153 H 7.7117185317949435 127.77489331450384 68.51297616813875 H 0.0 **** 0.06
16154 H 6.323216105155822 128.8101810051287 68.92561055393179 H 0.0 **** 0.06
16155 H 6.172031833192236 127.03898327945193 69.02232481611048 H 0.0 **** 0.06
16156 C 16.109011867434347 11.121563358010519 73.76527634450275 C 0.0 **** -0.24
16157 H 15.07383473659766 10.976229413811396 74.07494794107151 H 0.0 **** 0.06
16158 H 16.592383389606653 11.831600032839333 74.43787880068555 H 0.0 **** 0.06
16159 H 16.13119377122635 11.511595910125934 72.7482101273335 H 0.0 **** 0.06
16160 H 16.636673788365613 10.168440674997314 73.80166571849122 H 0.0 **** 0.06
16161 C 42.95871022034383 44.200178079057864 12.426793588877388 C 0.0 **** -0.24
16162 H 43.727388126454386 43.50245269814022 12.096941078204395 H 0.0 **** 0.06
16163 H 42.0933122296602 43.64396264073466 12.788355279378123 H 0.0 **** 0.06
16164 H 42.66041841937749 44.83485902567699 11.591770085974247 H 0.0 **** 0.06
16165 H 43.353722750040546 44.82131745594279 13.231678760450563 H 0.0 **** 0.06
16166 C 58.599628271182766 87.59896982918912 184.58980477439343 C 0.0 **** -0.24
16167 H 59.46151044160389 86.94108966555518 184.4819533149091 H 0.0 **** 0.06
16168 H 57.79246634484119 87.06137537880699 185.08738689656553 H 0.0 **** 0.06
16169 H 58.26714577584987 87.92578966892194 183.6044650757021 H 0.0 **** 0.06
16170 H 58.87961570619072 88.46745144196802 185.18555040137912 H 0.0 **** 0.06
16171 C 145.52498456521607 181.8752066499965 203.04628611856623 C 0.0 **** -0.24
16172 H 146.47586359196305 182.40832491390677 203.0218700429591 H 0.0 **** 0.06
16173 H 144.9872963510466 182.04942968739644 202.11496295628905 H 0.0 **** 0.06
16174 H 144.92840114543196 182.23764580286257 203.8843387695701 H 0.0 **** 0.06
16175 H 145.7092333801752 180.80841864129837 203.16579270508365 H 0.0 **** 0.06
16176 C 155.90196062231558 138.96195731504326 81.17868616366485 C 0.0 **** -0.24
16177 H 155.8483750387386 139.833769846218 80.52579057400209 H 0.0 **** 0.06
16178 H 155.22552109093016 138.19045973650526 80.81043870862902 H 0.0 **** 0.06
16179 H 155.61297409441363 139.24673046176446 82.19020935812489 H 0.0 **** 0.06
16180 H 156.9216662262898 138.5771982863625 81.18711851048658 H 0.0 **** 0.06
16181 C 135.23920223709717 185.82296923066295 88.86977721523623 C 0.0 **** -0.24
16182 H 134.1881155811967 185.6081403752872 89.05747513347502 H 0.0 **** 0.06
16183 H 135.42693571226403 186.88573687474778 89.03000596564091 H 0.0 **** 0.06
16184 H 135.48629942288437 185.5611256153836 87.84129628369932 H 0.0 **** 0.06
16185 H 135.8564670193304 185.23807176503917 89.55192770147433 H 0.0 **** 0.06
16186 C 178.74711355902738 123.43828645573508 205.90815312182474 C 0.0 **** -0.24
16187 H 178.7199856976349 124.07089140816369 205.0210656483104 H 0.0 **** 0.06
16188 H 179.64344750382594 123.66130002047903 206.48612157309034 H 0.0 **** 0.06
16189 H 178.75938230925044 122.39107234704584 205.6061908343284 H 0.0 **** 0.06
16190 H 177.8636189148316 123.63028195441227 206.5172952113325 H 0.0 **** 0.06
16191 C 39.52863669672482 167.84776382156332 134.697820703013 C 0.0 **** -0.24
16192 H 38.48945676649704 168.16835032156666 134.63411448658456 H 0.0 **** 0.06
16193 H 39.57523795031875 166.84630802319128 135.12558786302327 H 0.0 **** 0.06
16194 H 40.08339024980738 168.53988621891716 135.3322805045686 H 0.0 **** 0.06
16195 H 39.967501863414185 167.83761258227324 133.70013916364888 H 0.0 **** 0.06
16196 C 119.78378789150015 24.781318153577246 52.50812649003211 C 0.0 **** -0.24
16197 H 119.15778459698443 25.025872816502044 53.36724642175926 H 0.0 **** 0.06
16198 H 120.3047863944155 25.678404485702046 52.172779179316365 H 0.0 **** 0.06
16199 H 119.15949543484244 24.39956203101761 51.700969560368605 H 0.0 **** 0.06
16200 H 120.51243674416371 24.023206961869647 52.79423730305308 H 0.0 **** 0.06
16201 C 6.085272924949777 92.37699252683588 182.4335522442225 C 0.0 **** -0.24
16202 H 5.534270953307697 91.48676381712592 182.73973166553952 H 0.0 **** 0.06
16203 H 7.106798622884696 92.31823328892345 182.80830246138078 H 0.0 **** 0.06
16204 H 5.5987123266193635 93.26266139563863 182.8426238543559 H 0.0 **** 0.06
16205 H 6.098674124651154 92.4383035735974 181.34528917738626 H 0.0 **** 0.06
16206 C 65.78605970315537 101.97554493360896 142.4727543650601 C 0.0 **** -0.24
16207 H 66.53286612194564 102.40989792965497 143.138276569553 H 0.0 **** 0.06
16208 H 65.92957845904235 100.89677444648068 142.42021178661543 H 0.0 **** 0.06
16209 H 65.89437330034659 102.40634317906331 141.47697769010347 H 0.0 **** 0.06
16210 H 64.78896433451935 102.19225977912087 142.85536334162265 H 0.0 **** 0.06
16211 C 44.77959622927365 207.66027348888738 16.514552218027234 C 0.0 **** -0.24
16212 H 45.516077250742626 207.34500281660647 15.77493998371699 H 0.0 **** 0.06
16213 H 44.75342520824468 208.74879643578328 16.559518868997714 H 0.0 **** 0.06
16214 H 45.0535660278065 207.26224958768321 17.491754175336666 H 0.0 **** 0.06
16215 H 43.79698913320787 207.2834284701323 16.231228625374 H 0.0 **** 0.06
16216 C 32.30457982093125 67.95031369019495 22.338430056973436 C 0.0 **** -0.24
16217 H 31.2262946562239 67.96161800511946 22.493911354982572 H 0.0 **** 0.06
16218 H 32.80712542812819 67.7745815897405 23.289549543438795 H 0.0 **** 0.06
16219 H 32.62232240838978 68.9104912675032 21.932627400616354 H 0.0 **** 0.06
16220 H 32.56285247784888 67.15662197872855 21.638461619717248 H 0.0 **** 0.06
16221 C 213.0036858467592 165.19303564300805 37.11274009914976 C 0.0 **** -0.24
16222 H 212.53903799118385 164.8358121485017 38.03228993383999 H 0.0 **** 0.06
16223 H 212.2804227260126 165.14464836605325 36.29884682459205 H 0.0 **** 0.06
16224 H 213.8630557998061 164.5675469408775 36.87319618343612 H 0.0 **** 0.06
16225 H 213.33079810933313 166.2232258365524 37.24839718757721 H 0.0 **** 0.06
16226 C 31.80326648309061 60.74682967508012 100.21754322565185 C 0.0 **** -0.24
16227 H 32.123980225289316 61.753046260517905 99.94517024722806 H 0.0 **** 0.06
16228 H 30.78888985256964 60.78466562237189 100.61643500671103 H 0.0 **** 0.06
16229 H 32.476345401174754 60.34368993183121 100.97343490718957 H 0.0 **** 0.06
16230 H 31.822893448679608 60.108167476960176 99.3352708802556 H 0.0 **** 0.06
16231 C 16.901788095270433 145.69428780741595 197.3731726012768 C 0.0 **** -0.24
16232 H 17.397068699674946 146.1144674424055 198.24894445868864 H 0.0 **** 0.06
16233 H 16.114998205736413 146.37324313664817 197.0420736833667 H 0.0 **** 0.06
16234 H 16.464693285487954 144.72917632006323 197.63091102444497 H 0.0 **** 0.06
16235 H 17.629170791248214 145.5621287995034 196.57276924575163 H 0.0 **** 0.06
16236 C 204.1145972006056 179.7730371934203 104.97350646714794 C 0.0 **** -0.24
16237 H 203.57608917687753 179.53927413560564 104.0552853215943 H 0.0 **** 0.06
16238 H 204.07171095007692 180.84744318753133 105.15543416168454 H 0.0 **** 0.06
16239 H 205.1548687717058 179.4626720327443 104.87259724185579 H 0.0 **** 0.06
16240 H 203.65665739810487 179.2436442025383 105.80888202959405 H 0.0 **** 0.06
16241 C 86.24677342446631 201.835519295603 39.130266160736255 C 0.0 **** -0.24
16242 H 87.1607880402185 202.4285464682811 39.11302726777001 H 0.0 **** 0.06
16243 H 86.47827118448066 200.82187892104392 39.457128687423676 H 0.0 **** 0.06
16244 H 85.81473373548408 201.80552984315332 38.130175929621345 H 0.0 **** 0.06
16245 H 85.53409043716272 202.28662815889078 39.82107937632196 H 0.0 **** 0.06
16246 C 183.9100768401405 81.54010629163662 92.94567344288204 C 0.0 **** -0.24
16247 H 183.30713815522745 81.22027465885287 92.09582298246572 H 0.0 **** 0.06
16248 H 183.89288522959336 80.76717884197552 93.71465443010355 H 0.0 **** 0.06
16249 H 183.50221266896511 82.46618569775757 93.35175582523154 H 0.0 **** 0.06
16250 H 184.93736772284302 81.70736573651527 92.62004961400179 H 0.0 **** 0.06
16251 C 162.9313260803447 124.75424383160383 71.6686102673173 C 0.0 **** -0.24
16252 H 162.56203810559242 125.60763894721144 72.2377853842574 H 0.0 **** 0.06
16253 H 163.7411853091534 125.07778192415408 71.01414691320896 H 0.0 **** 0.06
16254 H 162.12073731376847 124.34141839934277 71.06796881592966 H 0.0 **** 0.06
16255 H 163.3000924551286 123.99223209974461 72.35433659547475 H 0.0 **** 0.06
16256 C 182.18850681690787 34.95925351118693 55.86474942476414 C 0.0 **** -0.24
16257 H 181.4605359733649 34.33351248739349 56.379674403752446 H 0.0 **** 0.06
16258 H 181.83105476668658 35.17963511000319 54.85870661978399 H 0.0 **** 0.06
16259 H 183.14157593232258 34.434654606620825 55.80528203941023 H 0.0 **** 0.06
16260 H 182.31953811254806 35.890941359841165 56.41584442809952 H 0.0 **** 0.06
16261 C 77.6910630618778 77.71824093397241 17.024646827686126 C 0.0 **** -0.24
16262 H 78.76153454366755 77.51037037515768 17.029314987687172 H 0.0 **** 0.06
16263 H 77.45126568462894 78.36848122169876 16.182849977555577 H 0.0 **** 0.06
16264 H 77.41411694688952 78.21072298458928 17.956652413490218 H 0.0 **** 0.06
16265 H 77.13999588541651 76.78243560186336 16.92966530525382 H 0.0 **** 0.06
16266 C 25.36112260089996 88.67182757312862 106.85372458644389 C 0.0 **** -0.24
16267 H 25.14694492185278 89.728348909113 106.69141398596139 H 0.0 **** 0.06
16268 H 26.379347197052283 88.45420911822048 106.53074003176215 H 0.0 **** 0.06
16269 H 24.66055060574884 88.06715101591838 106.27934992859537 H 0.0 **** 0.06
16270 H 25.258207740270066 88.43898697067614 107.91426970416006 H 0.0 **** 0.06
16271 C 200.5468882780964 95.42030291801875 90.55398152845139 C 0.0 **** -0.24
16272 H 201.36642418023035 94.73322957823682 90.76412734353578 H 0.0 **** 0.06
16273 H 200.0618169933184 95.13209841602749 89.62127677686856 H 0.0 **** 0.06
16274 H 200.93792789830837 96.4345397413302 90.4629988475909 H 0.0 **** 0.06
16275 H 199.82285983598914 95.38294373885903 91.368035732244 H 0.0 **** 0.06
16276 C 2.4091944047782476 39.23407130412528 165.08696900387963 C 0.0 **** -0.24
16277 H 2.001892358811574 40.23520947167668 164.9453160766834 H 0.0 **** 0.06
16278 H 2.9798391496858585 38.94587807829146 164.20329293127344 H 0.0 **** 0.06
16279 H 1.592536957263519 38.52765076025162 165.23844764553257 H 0.0 **** 0.06
16280 H 3.0620596292093865 39.227711259903 165.9599413341926 H 0.0 **** 0.06
16281 C 177.97649641264042 175.70986239046107 190.85594105256394 C 0.0 **** -0.24
16282 H 176.93508413763044 176.00093584336895 190.9971355061349 H 0.0 **** 0.06
16283 H 178.17165867132488 175.5614378456158 189.7944623844822 H 0.0 **** 0.06
16284 H 178.17088236398047 174.78223318255237 191.39505171384764 H 0.0 **** 0.06
16285 H 178.62792291493923 176.49621723357882 191.23882318837155 H 0.0 **** 0.06
16286 C 213.25456186273448 72.2332395837364 102.61977498719453 C 0.0 **** -0.24
16287 H 213.05833161540164 71.55431300950522 101.79046110309865 H 0.0 **** 0.06
16288 H 214.26662003887003 72.62985291666189 102.53285970580971 H 0.0 **** 0.06
16289 H 213.15331653623556 71.69480291973429 103.5625254810313 H 0.0 **** 0.06
16290 H 212.53838679580844 73.05513750591967 102.59178866212399 H 0.0 **** 0.06
16291 C 160.83158883102595 107.95975652716042 181.70184809221124 C 0.0 **** -0.24
16292 H 160.7081495316305 107.5486631966494 182.70379277634788 H 0.0 **** 0.06
16293 H 161.11386271599343 109.00998173064177 181.77340650820625 H 0.0 **** 0.06
16294 H 159.89352606883537 107.87143321917348 181.15559874342875 H 0.0 **** 0.06
16295 H 161.6113871743737 107.40871868629797 181.17674432393554 H 0.0 **** 0.06
16296 C 149.5422581914454 157.78779725171796 116.4422754336865 C 0.0 **** -0.24
16297 H 149.23069818843413 156.75295140708016 116.58656885272406 H 0.0 **** 0.06
16298 H 148.7023892792232 158.37146405042097 116.06488383165474 H 0.0 **** 0.06
16299 H 150.36167042874325 157.8234012105708 115.7248898558258 H 0.0 **** 0.06
16300 H 149.87426092857487 158.20199480350954 117.39452052555033 H 0.0 **** 0.06
16301 C 86.90276601466515 33.101284802845726 17.024224238291396 C 0.0 **** -0.24
16302 H 87.12511665313518 33.686481606898425 16.13143364388236 H 0.0 **** 0.06
16303 H 85.94464085097876 33.41809903186301 17.436528805572067 H 0.0 **** 0.06
16304 H 87.68713238442332 33.254941403061466 17.76464247563905 H 0.0 **** 0.06
16305 H 86.85280161254208 32.04389166783233 16.76126895566847 H 0.0 **** 0.06
16306 C 163.08634302312385 8.89692020891917 43.664132159185726 C 0.0 **** -0.24
16307 H 163.89059435167633 9.60564797554619 43.46506709234603 H 0.0 **** 0.06
16308 H 162.81482431918658 8.942963880558537 44.719454733035775 H 0.0 **** 0.06
16309 H 163.4216879313734 7.889298132503811 43.41823038532419 H 0.0 **** 0.06
16310 H 162.2197958021432 9.150357387147437 43.05321591990918 H 0.0 **** 0.06
16311 C 148.54402891120088 149.9967573582647 134.96080631062688 C 0.0 **** -0.24
16312 H 148.4855825025498 150.9298479070772 134.4013743097064 H 0.0 **** 0.06
16313 H 149.51867412419864 149.92265067994475 135.44469170051258 H 0.0 **** 0.06
16314 H 148.4104516525677 149.15566648230532 134.28042671617152 H 0.0 **** 0.06
16315 H 147.7604525494769 149.97793956273307 135.71853061351266 H 0.0 **** 0.06
16316 C 116.00736961695385 71.46144540124602 146.6612446420218 C 0.0 **** -0.24
16317 H 115.35843634625373 71.83561473099313 145.87030593658056 H 0.0 **** 0.06
16318 H 115.67916366303653 71.86190215824989 147.62094115196004 H 0.0 **** 0.06
16319 H 117.03346164343141 71.77559537994809 146.46824958353506 H 0.0 **** 0.06
16320 H 115.95982741394603 70.3727567607949 146.6855329023299 H 0.0 **** 0.06
16321 C 21.219884598770392 19.159850150972204 186.63218150385674 C 0.0 **** -0.24
16322 H 20.663874943005283 18.642778583886923 185.850621281577 H 0.0 **** 0.06
16323 H 21.694334849064603 20.047874249112255 186.21397544701748 H 0.0 **** 0.06
16324 H 21.98355511369357 18.494526467456126 187.03531036890467 H 0.0 **** 0.06
16325 H 20.536957357476695 19.453938640433535 187.4293229490721 H 0.0 **** 0.06
16326 C 140.04506217836888 177.81208070183482 150.81237739707166 C 0.0 **** -0.24
16327 H 140.26801433400448 176.8728205562216 150.30611278855963 H 0.0 **** 0.06
16328 H 140.07105056814038 178.62825584855125 150.09084579093104 H 0.0 **** 0.06
16329 H 140.78810892503418 177.99053911882356 151.58963042028455 H 0.0 **** 0.06
16330 H 139.0537542348203 177.75598527042627 151.26278944239834 H 0.0 **** 0.06
16331 C 171.74724715635313 33.76565730929906 76.03103099916541 C 0.0 **** -0.24
16332 H 172.49869505798787 33.1818603110254 76.56386894333099 H 0.0 **** 0.06
16333 H 170.8114654968478 33.748091375617946 76.59089641435435 H 0.0 **** 0.06
16334 H 171.58822468565003 33.33642823356162 75.04279198061357 H 0.0 **** 0.06
16335 H 172.09145034378943 34.79492166707601 75.9299608068086 H 0.0 **** 0.06
16336 C 174.05298774298836 37.31989079870428 177.5719329001096 C 0.0 **** -0.24
16337 H 174.6358471821953 36.41244496859804 177.73050805595796 H 0.0 **** 0.06
16338 H 172.9945632737561 37.06617673649532 177.50819151410164 H 0.0 **** 0.06
16339 H 174.36933115597702 37.79650299470052 176.64355484481047 H 0.0 **** 0.06
16340 H 174.21302236976777 38.005046517754664 178.40449262606606 H 0.0 **** 0.06
16341 C 54.980046384806855 216.13447183734195 74.94742115717895 C 0.0 **** -0.24
16342 H 55.63997034041424 215.4406027393353 75.46858926080193 H 0.0 **** 0.06
16343 H 55.16361700150547 217.1477236322292 75.30428634067613 H 0.0 **** 0.06
16344 H 53.94206062360362 215.8627568820822 75.1403192785574 H 0.0 **** 0.06
16345 H 55.175262641229736 216.08575808325483 73.87531493556742 H 0.0 **** 0.06
16346 C 118.03001164042155 170.6639575363643 47.09507114755776 C 0.0 **** -0.24
16347 H 119.05270642224019 170.42293033382333 46.80403950386082 H 0.0 **** 0.06
16348 H 117.35134678768458 170.41233730761968 46.27939018419818 H 0.0 **** 0.06
16349 H 117.95651891056423 171.72878734630098 47.314154275455095 H 0.0 **** 0.06
16350 H 117.76055497268209 170.0913436569507 47.981896703399684 H 0.0 **** 0.06
16351 C 138.0049029075878 59.245417307735764 168.00317421786087 C 0.0 **** -0.24
16352 H 137.8649509253512 60.24106756104044 167.58003808877385 H 0.0 **** 0.06
16353 H 138.90682932652078 58.79663129719694 167.58644409449371 H 0.0 **** 0.06
16354 H 137.1430461703569 58.62428886859338 167.760813845171 H 0.0 **** 0.06
16355 H 138.10416755455896 59.323140810724 169.08620825998338 H 0.0 **** 0.06
16356 C 20.967495674520364 206.73279342093215 116.05010766154874 C 0.0 **** -0.24
16357 H 20.342561994728868 205.83901681748188 116.04038969472964 H 0.0 **** 0.06
16358 H 20.585559533296276 207.45024555011682 115.32429063811793 H 0.0 **** 0.06
16359 H 21.99104629098086 206.4623760312967 115.79029867280519 H 0.0 **** 0.06
16360 H 20.950433396535345 207.17656016936405 117.04539409441463 H 0.0 **** 0.06
16361 C 1.1783145761434213 21.76004111588354 193.23687414978326 C 0.0 **** -0.24
16362 H 2.1271770436325497 21.951283061708537 193.7385918808027 H 0.0 **** 0.06
16363 H 0.4385145425832775 22.488224945618754 193.57040131340574 H 0.0 **** 0.06
16364 H 0.8343541821417233 20.755243277239842 193.4811028920273 H 0.0 **** 0.06
16365 H 1.3143831395530796 21.846832444961294 192.15954888610875 H 0.0 **** 0.06
16366 C 61.68161035721357 91.2643454770872 158.29540590533213 C 0.0 **** -0.24
16367 H 62.66244977477487 90.98436355850157 157.91030681465446 H 0.0 **** 0.06
16368 H 60.91170532059692 90.94897647770784 157.59093037547126 H 0.0 **** 0.06
16369 H 61.637125793006305 92.34653114024962 158.4226123152161 H 0.0 **** 0.06
16370 H 61.516901195768526 90.77852931697453 159.25680835808606 H 0.0 **** 0.06
16371 C 162.1258713114561 40.970697887804306 54.01800191682368 C 0.0 **** -0.24
16372 H 161.6207401000308 40.677410816382974 54.93764492884965 H 0.0 **** 0.06
16373 H 161.53503246489126 40.64761733300145 53.16053963805648 H 0.0 **** 0.06
16374 H 163.1094364728407 40.5035820572694 53.979524735622164 H 0.0 **** 0.06
16375 H 162.23786295228086 42.054482069418725 53.9951579002046 H 0.0 **** 0.06
16376 C 169.01126220285948 131.6052045615188 10.219936096978046 C 0.0 **** -0.24
16377 H 168.69519293472996 131.7599836456019 11.251473680659132 H 0.0 **** 0.06
16378 H 169.00405273996995 132.55849120853384 9.69120768530297 H 0.0 **** 0.06
16379 H 168.326503420346 130.9124029151149 9.730590177411784 H 0.0 **** 0.06
16380 H 170.01965571186997 131.19079217387105 10.206857417430811 H 0.0 **** 0.06
16381 C 161.93342470428223 167.81222461186576 49.32547830838553 C 0.0 **** -0.24
16382 H 160.98030139359128 167.5519321518259 48.86554470415672 H 0.0 **** 0.06
16383 H 162.1150945751075 167.1583141500036 50.17831199651448 H 0.0 **** 0.06
16384 H 161.90191141562764 168.84920785320267 49.66138726099848 H 0.0 **** 0.06
16385 H 162.73372479570492 167.69074271564318 48.596218387973295 H 0.0 **** 0.06
16386 C 149.43029733120466 216.45627910483302 133.41216337109626 C 0.0 **** -0.24
16387 H 148.41737289645278 216.19274735000047 133.71622461034582 H 0.0 **** 0.06
16388 H 149.4754334780696 216.52931613384717 132.32494284165762 H 0.0 **** 0.06
16389 H 150.12397784859934 215.68886569281398 133.75442805995817 H 0.0 **** 0.06
16390 H 149.70401427344098 217.41497704894783 133.8525852396582 H 0.0 **** 0.06
16391 C 92.52207131063743 16.576324124196262 86.9879892191293 C 0.0 **** -0.24
16392 H 92.29109403950214 15.678879935471628 87.5609862066525 H 0.0 **** 0.06
16393 H 91.9933517420193 16.54528739892747 86.03474922087634 H 0.0 **** 0.06
16394 H 93.59608609153169 16.624847132735184 86.80653973218818 H 0.0 **** 0.06
16395 H 92.20775336949644 17.456282029650794 87.5496817168002 H 0.0 **** 0.06
16396 C 70.66687668899876 92.86540882569746 159.40891416974193 C 0.0 **** -0.24
16397 H 71.00643667336546 93.66668393942813 160.06480694773893 H 0.0 **** 0.06
16398 H 69.57640102947447 92.84757286237438 159.39313829561237 H 0.0 **** 0.06
16399 H 71.04013842779939 91.91056695358826 159.77849068730976 H 0.0 **** 0.06
16400 H 71.0425532011371 93.03780842309716 158.40026771248705 H 0.0 **** 0.06
16401 C 5.0212047668076 125.8000855246571 48.998697209876696 C 0.0 **** -0.24
16402 H 5.932978295999888 125.8189882979363 48.40086874787775 H 0.0 **** 0.06
16403 H 4.178992255655835 126.12260731126025 48.385929772628515 H 0.0 **** 0.06
16404 H 5.130733067803291 126.4730153738376 49.849237102244615 H 0.0 **** 0.06
16405 H 4.843772004474765 124.78599879568367 49.35766499111131 H 0.0 **** 0.06
16406 C 2.0509702224311184 77.7656012098164 116.90759090841864 C 0.0 **** -0.24
16407 H 2.0004282724807467 78.01430287808705 115.84752339690654 H 0.0 **** 0.06
16408 H 2.768631815642891 78.42065133227396 117.400270612015 H 0.0 **** 0.06
16409 H 2.3659586583856083 76.72862678053639 117.0226319846859 H 0.0 **** 0.06
16410 H 1.067303902289325 77.89847840197473 117.3592648824194 H 0.0 **** 0.06
16411 C 101.25672584062221 61.546767699107534 145.06672376456834 C 0.0 **** -0.24
16412 H 102.29188535325574 61.810584187825214 144.85101383602483 H 0.0 **** 0.06
16413 H 101.23195390712209 60.65828654240744 145.69767679162953 H 0.0 **** 0.06
16414 H 100.73146744738654 61.34513651396719 144.13269558688233 H 0.0 **** 0.06
16415 H 100.77140513493106 62.374043406071166 145.58556562021448 H 0.0 **** 0.06
16416 C 26.465194176709062 162.91188488090347 207.25072349484378 C 0.0 **** -0.24
16417 H 26.201018997106615 162.45453356324262 206.29729422037988 H 0.0 **** 0.06
16418 H 26.73142154343624 163.95751371961973 207.09017914109137 H 0.0 **** 0.06
16419 H 27.313614799001172 162.38294811011795 207.68469062923737 H 0.0 **** 0.06
16420 H 25.614314994909734 162.85265647434488 207.929380072271 H 0.0 **** 0.06
16421 C 173.42455574369788 72.29454828292818 41.57473163522462 C 0.0 **** -0.24
16422 H 173.9254275909256 71.95794473059921 42.48274957971324 H 0.0 **** 0.06
16423 H 173.75637139108684 71.68817672954928 40.73161654164477 H 0.0 **** 0.06
16424 H 173.671426284134 73.33992448235178 41.38981362085178 H 0.0 **** 0.06
16425 H 172.34606091329692 72.19127907999307 41.69508741012356 H 0.0 **** 0.06
16426 C 64.74049944608299 93.37177587741648 176.6087047688247 C 0.0 **** -0.24
16427 H 63.79480405256197 93.84433801642807 176.34273223437077 H 0.0 **** 0.06
16428 H 65.28579135643312 94.0142834669527 177.30115757789324 H 0.0 **** 0.06
16429 H 65.33528344883825 93.21915768753614 175.70770430949068 H 0.0 **** 0.06
16430 H 64.54437068116937 92.40933356247793 177.0822535519861 H 0.0 **** 0.06
16431 C 213.6070423108558 40.772415260204355 216.90623016025634 C 0.0 **** -0.24
16432 H 213.3974507148871 39.96149074336057 217.60258775473199 H 0.0 **** 0.06
16433 H 213.04239993709717 40.61791019497679 215.98678450621318 H 0.0 **** 0.06
16434 H 214.67370529853005 40.78974620260175 216.67954344079033 H 0.0 **** 0.06
16435 H 213.31662526833702 41.721492599939154 217.35700203645678 H 0.0 **** 0.06
16436 C 147.2980416746048 161.34636149775508 33.06856398467181 C 0.0 **** -0.24
16437 H 147.33997622612657 160.35532335371838 32.617256973336 H 0.0 **** 0.06
16438 H 147.8332409710768 161.3363213393184 34.017364291480874 H 0.0 **** 0.06
16439 H 146.25784781308124 161.62313137094716 33.23958532888511 H 0.0 **** 0.06
16440 H 147.7605684563523 162.0702543623368 32.39769497213035 H 0.0 **** 0.06
16441 C 63.27197741729613 108.1438719536332 196.0715279551115 C 0.0 **** -0.24
16442 H 63.92199650158399 107.32197724798023 196.37095977145304 H 0.0 **** 0.06
16443 H 63.832447620588425 108.84132868335435 195.4491290512585 H 0.0 **** 0.06
16444 H 62.90644362610526 108.65985857064705 196.9588548283824 H 0.0 **** 0.06
16445 H 62.427077864442126 107.75085633825951 195.50548147391623 H 0.0 **** 0.06
16446 C 206.3909960618754 178.58327010207597 16.686086399384564 C 0.0 **** -0.24
16447 H 206.74757993702056 179.43832629296128 17.260379866872483 H 0.0 **** 0.06
16448 H 205.3011811643703 178.55837184961266 16.71069771290979 H 0.0 **** 0.06
16449 H 206.7856398584691 177.6643187001273 17.12018286411879 H 0.0 **** 0.06
16450 H 206.72974239912287 178.67282698703596 15.653711163382184 H 0.0 **** 0.06
16451 C 101.55943985448026 157.67055721221152 109.38789734942684 C 0.0 **** -0.24
16452 H 102.2575563976932 157.02458074233556 109.92112323404727 H 0.0 **** 0.06
16453 H 100.55309573544046 157.2585135502037 109.46595296925052 H 0.0 **** 0.06
16454 H 101.84769077287272 157.7304122756396 108.33886069614398 H 0.0 **** 0.06
16455 H 101.57972716505743 158.66764030943628 109.82758457425392 H 0.0 **** 0.06
16456 C 131.61309886106966 201.24559310970915 2.8301301403081 C 0.0 **** -0.24
16457 H 131.66160403882333 201.89192109584366 1.954365045654285 H 0.0 **** 0.06
16458 H 130.80620490458335 201.57950184590382 3.4831862264800293 H 0.0 **** 0.06
16459 H 132.55955151172458 201.29064424073255 3.368797857917876 H 0.0 **** 0.06
16460 H 131.4236378318526 200.21940668104907 2.5136809571676295 H 0.0 **** 0.06
16461 C 3.0474148853759573 83.18627014632891 184.9054796544283 C 0.0 **** -0.24
16462 H 3.852100479895057 82.99273478165397 185.6152164390188 H 0.0 **** 0.06
16463 H 2.6233789405820573 84.17182026541393 185.0978688885521 H 0.0 **** 0.06
16464 H 2.2723120645167683 82.42829339027581 185.02081828519061 H 0.0 **** 0.06
16465 H 3.442480974844102 83.15201754982466 183.89037686448268 H 0.0 **** 0.06
16466 C 4.221108742661244 52.208297226521296 132.48914706951678 C 0.0 **** -0.24
16467 H 4.384595812896464 52.79295150501943 133.39477972109933 H 0.0 **** 0.06
16468 H 4.336725878915786 52.85091385776278 131.61577618803148 H 0.0 **** 0.06
16469 H 3.2142577946958397 51.791007071325 132.50293949752194 H 0.0 **** 0.06
16470 H 4.948815478725862 51.39839798532293 132.44408874896237 H 0.0 **** 0.06
16471 C 80.88743084292001 55.45158857399538 84.61163318703541 C 0.0 **** -0.24
16472 H 80.7831356367909 55.10538078262093 83.58371062220726 H 0.0 **** 0.06
16473 H 80.45093565986632 54.71739736872024 85.28821603696679 H 0.0 **** 0.06
16474 H 80.37159487871035 56.40431615897498 84.72776470421252 H 0.0 **** 0.06
16475 H 81.94391571883092 55.57932166348891 84.84585335797578 H 0.0 **** 0.06
16476 C 7.802364117259174 111.02874316636083 52.9239498201447 C 0.0 **** -0.24
16477 H 6.980816725718341 111.63363861169121 52.53983196697651 H 0.0 **** 0.06
16478 H 7.908630128916002 110.13175854288794 52.31274995157837 H 0.0 **** 0.06
16479 H 7.592334361113899 110.74361654673454 53.95491027144175 H 0.0 **** 0.06
16480 H 8.725830619900762 111.60591621469887 52.88753536009365 H 0.0 **** 0.06
16481 C 30.491792888527613 23.66936919020516 215.61867111696452 C 0.0 **** -0.24
16482 H 31.488595162909633 23.432142921363976 215.2504062450555 H 0.0 **** 0.06
16483 H 29.75932852203269 23.481914478125105 214.83280672762015 H 0.0 **** 0.06
16484 H 30.45243052891948 24.719161604889223 215.90913561626854 H 0.0 **** 0.06
16485 H 30.26554148409403 23.044592756148802 216.48284578102832 H 0.0 **** 0.06
16486 C 185.16789858420782 122.89702226006615 37.27646270420291 C 0.0 **** -0.24
16487 H 185.87152107387934 123.30338282307834 36.54974086917139 H 0.0 **** 0.06
16488 H 184.77015103846816 123.70651047514782 37.88797545519955 H 0.0 **** 0.06
16489 H 185.6798094072662 122.1770834301124 37.91394172660199 H 0.0 **** 0.06
16490 H 184.34977801606374 122.40195274062923 36.7521478520199 H 0.0 **** 0.06
16491 C 192.4582356624624 30.92388525536873 52.431985780629816 C 0.0 **** -0.24
16492 H 193.21547336545743 30.17758166742945 52.192862082041245 H 0.0 **** 0.06
16493 H 192.69873146260224 31.39264732072519 53.3864222845537 H 0.0 **** 0.06
16494 H 191.48201806144502 30.44226415616356 52.49890716407987 H 0.0 **** 0.06
16495 H 192.4365429192211 31.682185861287678 51.64927654152399 H 0.0 **** 0.06
16496 C 140.36226901617243 42.03226306359517 115.33511463603092 C 0.0 **** -0.24
16497 H 140.91725510165094 41.23029346654067 115.82159828672009 H 0.0 **** 0.06
16498 H 139.5076703538519 41.61262831481605 114.8042691379952 H 0.0 **** 0.06
16499 H 141.01304548035444 42.546863392455805 114.62857544956542 H 0.0 **** 0.06
16500 H 140.01187520342222 42.738988046335635 116.08716856139104 H 0.0 **** 0.06
16501 C 83.03531095394472 121.1875650205717 26.500422342703047 C 0.0 **** -0.24
16502 H 83.54868837456688 120.31915862919362 26.087544514592565 H 0.0 **** 0.06
16503 H 81.97712048870353 120.95829109072838 26.626880022585638 H 0.0 **** 0.06
16504 H 83.14557773486784 122.03217830344937 25.81973093751276 H 0.0 **** 0.06
16505 H 83.47098183838587 121.44126161850994 27.466951730514324 H 0.0 **** 0.06
16506 C 139.27723231965535 212.8564508028403 6.423248954821133 C 0.0 **** -0.24
16507 H 138.7903773447964 213.79373033380713 6.69429040163277 H 0.0 **** 0.06
16508 H 138.69241890422938 212.354043789077 5.652273851126154 H 0.0 **** 0.06
16509 H 139.3450126108238 212.21617262957747 7.302723700529839 H 0.0 **** 0.06
16510 H 140.27832921703418 213.0620167510051 6.044795823641749 H 0.0 **** 0.06
16511 C 185.7260439993799 73.63133466133054 15.485875002990227 C 0.0 **** -0.24
16512 H 186.53734293962572 72.927450599869 15.300655155486425 H 0.0 **** 0.06
16513 H 186.12519625016733 74.53186514200435 15.951939870169483 H 0.0 **** 0.06
16514 H 184.9917588062446 73.17306024780932 16.148514389642386 H 0.0 **** 0.06
16515 H 185.2487132333664 73.89113812536014 14.54031344547991 H 0.0 **** 0.06
16516 C 13.657256574743883 25.02500862796458 111.08439050741856 C 0.0 **** -0.24
16517 H 13.0699109955671 25.540418610995715 110.32367579274177 H 0.0 **** 0.06
16518 H 13.059904803555554 24.227435776465228 111.52557248352093 H 0.0 **** 0.06
16519 H 13.947318527282306 25.734046660578002 111.85988407370218 H 0.0 **** 0.06
16520 H 14.551374962190579 24.600998120510837 110.62719411838134 H 0.0 **** 0.06
16521 C 71.05896720067078 5.28027417349297 135.87167626444239 C 0.0 **** -0.24
16522 H 71.0976474453317 5.824316880892667 134.9279588769278 H 0.0 **** 0.06
16523 H 71.92533193771062 5.543404164248372 136.47854106583537 H 0.0 **** 0.06
16524 H 71.06653804367654 4.2077880301105495 135.67272822824185 H 0.0 **** 0.06
16525 H 70.14691501235252 5.544653904083546 136.4055248171593 H 0.0 **** 0.06
16526 C 55.3653202179882 143.59132147910788 23.411600637353715 C 0.0 **** -0.24
16527 H 56.024141248886394 142.73665352294 23.26256826818846 H 0.0 **** 0.06
16528 H 54.53618954371507 143.3023514327432 24.056758570329123 H 0.0 **** 0.06
16529 H 54.97825618358439 143.92397320864626 22.448118718408736 H 0.0 **** 0.06
16530 H 55.92401216943159 144.40234819313338 23.878446548597864 H 0.0 **** 0.06
16531 C 53.78574408145313 196.16564284227837 45.41838380813911 C 0.0 **** -0.24
16532 H 54.64467086040371 195.49655473901888 45.38652463180813 H 0.0 **** 0.06
16533 H 53.74870156743867 196.6617528225128 46.38914325635727 H 0.0 **** 0.06
16534 H 52.871272518905286 195.59049616716376 45.2693025552406 H 0.0 **** 0.06
16535 H 53.87664803552035 196.91386890441066 44.63159072760038 H 0.0 **** 0.06
16536 C 72.62520562196615 162.85600271701531 90.81131683687865 C 0.0 **** -0.24
16537 H 72.02372886468213 161.98897252783115 91.08140287937128 H 0.0 **** 0.06
16538 H 73.46730470304131 162.94160960415846 91.4998273857638 H 0.0 **** 0.06
16539 H 72.01314967943064 163.75636437481583 90.87268100179905 H 0.0 **** 0.06
16540 H 72.99734589630448 162.73864137471048 89.79467480077328 H 0.0 **** 0.06
16541 C 156.9567326529202 157.17405387320537 130.3847652192431 C 0.0 **** -0.24
16542 H 157.48037715465978 157.80475239969712 131.10363235034896 H 0.0 **** 0.06
16543 H 157.6533171446997 156.8487466986595 129.61225863681597 H 0.0 **** 0.06
16544 H 156.14571065499103 157.74024009821358 129.9274758110236 H 0.0 **** 0.06
16545 H 156.54848753156716 156.3024923926979 130.896730694795 H 0.0 **** 0.06
16546 C 43.139792604070294 178.38348158305823 9.81489807912294 C 0.0 **** -0.24
16547 H 42.82293724730965 177.35226291020965 9.969636123574432 H 0.0 **** 0.06
16548 H 42.378980419020934 179.0602818224284 10.204194107278482 H 0.0 **** 0.06
16549 H 43.27687145476972 178.5643460528342 8.748433085981247 H 0.0 **** 0.06
16550 H 44.08158131278219 178.55569895513577 10.335997246929182 H 0.0 **** 0.06
16551 C 151.26289921367885 69.21810659042265 43.76005638671417 C 0.0 **** -0.24
16552 H 150.98043787685617 70.2448140238406 43.993199215969724 H 0.0 **** 0.06
16553 H 152.20461139581596 69.21713996092916 43.21183895192591 H 0.0 **** 0.06
16554 H 150.48575466876503 68.75707353455397 43.1513397068216 H 0.0 **** 0.06
16555 H 151.37981380543113 68.65593761476202 44.68710286608582 H 0.0 **** 0.06
16556 C 153.9332843476119 104.9377338807986 109.85070894220762 C 0.0 **** -0.24
16557 H 153.00863751101235 104.3640101672243 109.9076426960949 H 0.0 **** 0.06
16558 H 154.61647029206227 104.60419444116305 110.63192437173892 H 0.0 **** 0.06
16559 H 153.71272005275432 105.99676906748967 109.98804072346893 H 0.0 **** 0.06
16560 H 154.3946004844172 104.78633028578467 108.87462671397769 H 0.0 **** 0.06
16561 C 32.106891497131585 58.400316779698144 68.50339820526938 C 0.0 **** -0.24
16562 H 31.43135503333606 58.42166826669286 67.6480767794576 H 0.0 **** 0.06
16563 H 33.046615859746964 58.88478800935907 68.23599793068661 H 0.0 **** 0.06
16564 H 32.298888241578496 57.366677908731035 68.7884070544032 H 0.0 **** 0.06
16565 H 31.649896178152957 58.928721756933456 69.33911201245877 H 0.0 **** 0.06
16566 C 212.67670605861542 90.29322565203456 188.7394847430603 C 0.0 **** -0.24
16567 H 212.1915056856192 90.22044428757987 189.71220905522048 H 0.0 **** 0.06
16568 H 212.30458715935353 91.17161113064132 188.21190478035305 H 0.0 **** 0.06
16569 H 212.45721012587936 89.39904712192207 188.15652640878233 H 0.0 **** 0.06
16570 H 213.75485458753178 90.3813347885342 188.87737486092112 H 0.0 **** 0.06
16571 C 116.42845569807348 111.56991544116231 109.85664677000922 C 0.0 **** -0.24
16572 H 115.48727783596497 111.28584483823506 109.38532599764993 H 0.0 **** 0.06
16573 H 116.69388295609276 110.82963708088106 110.61120455566395 H 0.0 **** 0.06
16574 H 116.31763887127657 112.54654293160634 110.32783305206208 H 0.0 **** 0.06
16575 H 117.21250620791942 111.61713167266574 109.10103605083712 H 0.0 **** 0.06
16576 C 3.0363915946891495 151.00450474401725 154.9744959878658 C 0.0 **** -0.24
16577 H 2.427281187175339 150.38162021539216 154.32055372179758 H 0.0 **** 0.06
16578 H 3.7188701853698376 150.3744299993083 155.5447783075549 H 0.0 **** 0.06
16579 H 2.389792163339081 151.5534815513414 155.6586588103081 H 0.0 **** 0.06
16580 H 3.6111390598181856 151.7095027024593 154.37270084788292 H 0.0 **** 0.06
16581 C 114.65486912419344 1.966297228455062 206.57423880126103 C 0.0 **** -0.24
16582 H 114.1157921182703 2.8071113497434155 207.01008478570475 H 0.0 **** 0.06
16583 H 114.21711166535233 1.0322181714121754 206.9265609008488 H 0.0 **** 0.06
16584 H 115.70244241972036 2.012252748106185 206.87376415345204 H 0.0 **** 0.06
16585 H 114.58550224378912 2.014209776219161 205.48741371707618 H 0.0 **** 0.06
16586 C 90.87634259667944 63.18400141130587 195.53351710880608 C 0.0 **** -0.24
16587 H 91.59302330313044 63.879502605268215 195.0962620363813 H 0.0 **** 0.06
16588 H 90.21370073006001 63.72239280753007 196.21039418857757 H 0.0 **** 0.06
16589 H 91.41104394509306 62.41049363235311 196.0852002865077 H 0.0 **** 0.06
16590 H 90.28839659940267 62.722864914416846 194.73863359081278 H 0.0 **** 0.06
16591 C 46.476612934107976 41.98819764746233 206.33198467684292 C 0.0 **** -0.24
16592 H 47.54601660294699 41.80612917073712 206.23371987563692 H 0.0 **** 0.06
16593 H 45.92742310744275 41.263018732019034 205.7324446932904 H 0.0 **** 0.06
16594 H 46.246559632381974 42.99593512376323 205.98508151207525 H 0.0 **** 0.06
16595 H 46.185993869328684 41.889359308500545 207.378442367785 H 0.0 **** 0.06
16596 C 169.61053232389872 47.037654518283105 198.33157886815542 C 0.0 **** -0.24
16597 H 170.1177533949355 46.073442544092316 198.3548421589293 H 0.0 **** 0.06
16598 H 170.29717246937915 47.80052098584416 197.96584920758755 H 0.0 **** 0.06
16599 H 169.2798981000686 47.29809154822945 199.33674387449415 H 0.0 **** 0.06
16600 H 168.74705708611745 46.97762333728723 197.6699075834087 H 0.0 **** 0.06
16601 C 196.39674395432715 127.75290586647667 179.4100594527 C 0.0 **** -0.24
16602 H 196.42244168814395 126.69635590662476 179.67365747494904 H 0.0 **** 0.06
16603 H 195.5268008007376 127.94949829906305 178.78289083638668 H 0.0 **** 0.06
16604 H 197.30404637457517 128.01448575713823 178.8652104625116 H 0.0 **** 0.06
16605 H 196.33264535428 128.35223323398395 180.3185935596159 H 0.0 **** 0.06
16606 C 17.685608268929684 116.53321842188684 3.323148527931849 C 0.0 **** -0.24
16607 H 16.904440405847026 116.36468859732985 4.065167815748204 H 0.0 **** 0.06
16608 H 17.896069109945216 117.60110221309547 3.25415141179014 H 0.0 **** 0.06
16609 H 17.349920204760053 116.16527996117195 2.3535429632734335 H 0.0 **** 0.06
16610 H 18.589156935095218 116.00273185307567 3.6199193272510186 H 0.0 **** 0.06
16611 C 162.4664013816867 68.59130714523228 39.75962490925485 C 0.0 **** -0.24
16612 H 161.80814388217934 67.85115101571496 40.214939208117414 H 0.0 **** 0.06
16613 H 163.50446475574458 68.29261685076187 39.90699750846801 H 0.0 **** 0.06
16614 H 162.29774532823905 69.56256460802247 40.224820797894324 H 0.0 **** 0.06
16615 H 162.25481482646796 68.65743744186624 38.69256772041365 H 0.0 **** 0.06
16616 C 133.12385104926193 126.76869935976198 68.91939248216909 C 0.0 **** -0.24
16617 H 133.26379889790064 127.68987746202056 68.35495061864017 H 0.0 **** 0.06
16618 H 132.27981378223814 126.21383700135961 68.50700185468213 H 0.0 **** 0.06
16619 H 132.92476264120666 127.00889622865388 69.9645945846421 H 0.0 **** 0.06
16620 H 134.02619888031518 126.16144736501941 68.85235120529723 H 0.0 **** 0.06
16621 C 29.722062184972742 5.5587519821509375 193.6001312097194 C 0.0 **** -0.24
16622 H 30.760495466515863 5.88504741126161 193.55336871742665 H 0.0 **** 0.06
16623 H 29.619342183107165 4.599809124775248 193.0918642127643 H 0.0 **** 0.06
16624 H 29.085649335372636 6.298401361415557 193.11317367934265 H 0.0 **** 0.06
16625 H 29.421561599956874 5.451610991913469 194.6428533008451 H 0.0 **** 0.06
16626 C 48.81272091726254 215.9433629610386 0.29782509885086483 C 0.0 **** -0.24
16627 H 48.746537783323845 216.16541439855774 -0.7668842862966017 H 0.0 **** 0.06
16628 H 49.370196433724715 215.01703166800166 0.44147935225123547 H 0.0 **** 0.06
16629 H 47.80895768767164 215.83104528149488 0.7081667391874475 H 0.0 **** 0.06
16630 H 49.32448930799222 216.75882443444476 0.8080738829272889 H 0.0 **** 0.06
16631 C 60.056550718251 106.88299611517067 150.4158883851345 C 0.0 **** -0.24
16632 H 59.77339641566488 107.4756211174577 149.5459260950546 H 0.0 **** 0.06
16633 H 59.16745714461916 106.42685761603678 150.8500362925206 H 0.0 **** 0.06
16634 H 60.53249876970722 107.52857203771356 151.1552139883877 H 0.0 **** 0.06
16635 H 60.75508746448821 106.10281353397664 150.1130572524366 H 0.0 **** 0.06
16636 C 5.6509899589316035 34.989174970995634 169.07426320653423 C 0.0 **** -0.24
16637 H 6.6490707548072265 34.574020755019845 169.2163014004602 H 0.0 **** 0.06
16638 H 5.147495618770968 35.062411337854826 170.0390227862045 H 0.0 **** 0.06
16639 H 5.078686115315513 34.339244620424196 168.4136271815746 H 0.0 **** 0.06
16640 H 5.729874792927703 35.98146115220787 168.62995761698147 H 0.0 **** 0.06
16641 C 29.060584401407652 28.47313239013937 1.858902278757057 C 0.0 **** -0.24
16642 H 28.93167273996994 29.001715631120902 2.8043417044146395 H 0.0 **** 0.06
16643 H 29.836332068945296 27.71566483483656 1.9698283410234012 H 0.0 **** 0.06
16644 H 29.351474402637848 29.182427246577276 1.083835213088605 H 0.0 **** 0.06
16645 H 28.122054030012293 27.99522529294353 1.5796252294056785 H 0.0 **** 0.06
16646 C 114.72825554198069 49.263032175278056 46.75896518302498 C 0.0 **** -0.24
16647 H 114.84463376587924 49.56956596895367 47.79834782395341 H 0.0 **** 0.06
16648 H 113.7857368619372 48.728724028619126 46.640683848878695 H 0.0 **** 0.06
16649 H 115.55505984916915 48.608465308914276 46.47937436081634 H 0.0 **** 0.06
16650 H 114.73049094064372 50.1447541135731 46.1179140400001 H 0.0 **** 0.06
16651 C 9.687111162912942 63.65487201838643 200.90231602660532 C 0.0 **** -0.24
16652 H 9.388097657006142 62.702332381239884 201.33801463081144 H 0.0 **** 0.06
16653 H 10.775284381408753 63.70636302803875 200.85443204754847 H 0.0 **** 0.06
16654 H 9.311798687129908 64.47040458860586 201.51925142272611 H 0.0 **** 0.06
16655 H 9.274439959529616 63.74013086198124 199.89682383257266 H 0.0 **** 0.06
16656 C 14.010841719627749 176.22656707455235 156.7929219416805 C 0.0 **** -0.24
16657 H 14.889703234597576 175.63494858800414 157.0501944605349 H 0.0 **** 0.06
16658 H 13.220036218086008 175.56626005129937 156.43768762265705 H 0.0 **** 0.06
16659 H 14.27045993077995 176.93883758102365 156.01032866856355 H 0.0 **** 0.06
16660 H 13.665702257734011 176.76516148278841 157.67533451398606 H 0.0 **** 0.06
16661 C 190.23659978348596 28.870347734109586 185.33154669298017 C 0.0 **** -0.24
16662 H 190.87635287642618 28.414899520218853 186.08791766893023 H 0.0 **** 0.06
16663 H 190.05500812461491 29.913523910957352 185.59058737201477 H 0.0 **** 0.06
16664 H 189.2875312134164 28.334907751375653 185.28928524859955 H 0.0 **** 0.06
16665 H 190.72789616121966 28.815799140410405 184.36057324305966 H 0.0 **** 0.06
16666 C 5.005355778680155 130.6631336634788 200.08323255806593 C 0.0 **** -0.24
16667 H 5.451319261729168 131.509130454606 200.60480624695987 H 0.0 **** 0.06
16668 H 4.2692468714024585 131.02649591891003 199.36517426778857 H 0.0 **** 0.06
16669 H 4.5172052949152715 130.00743220707966 200.8040451806762 H 0.0 **** 0.06
16670 H 5.784322413602695 130.11003776698124 199.55684669564957 H 0.0 **** 0.06
16671 C 117.21844437037032 26.301104328528055 70.92997597759334 C 0.0 **** -0.24
16672 H 117.35579761187779 25.220918441059894 70.99219089988593 H 0.0 **** 0.06
16673 H 116.82483062305369 26.560687956884834 69.94583892367719 H 0.0 **** 0.06
16674 H 118.1766284075839 26.79765611530138 71.0808858830125 H 0.0 **** 0.06
16675 H 116.51658832208057 26.622952894596324 71.69895173446368 H 0.0 **** 0.06
16676 C 37.3701557679144 76.00183148825067 213.08263975007304 C 0.0 **** -0.24
16677 H 37.31329204482124 75.14593160095302 212.4109902757273 H 0.0 **** 0.06
16678 H 38.30949919164746 75.96926446409924 213.63447709506087 H 0.0 **** 0.06
16679 H 36.53600285397317 75.96923469495289 213.78388400895417 H 0.0 **** 0.06
16680 H 37.320632344914955 76.92356765171473 212.5022639877603 H 0.0 **** 0.06
16681 C 198.0936129798397 90.30393197889732 125.40233457945004 C 0.0 **** -0.24
16682 H 198.9342946913996 90.85114902545318 124.97681738104217 H 0.0 **** 0.06
16683 H 197.82634751683665 90.73973690525831 126.36570906421537 H 0.0 **** 0.06
16684 H 198.37283581534206 89.25922203629956 125.54016014071658 H 0.0 **** 0.06
16685 H 197.24012431283973 90.36585105241947 124.72617758333638 H 0.0 **** 0.06
16686 C 12.97718476828797 57.933789630853084 117.81090669336851 C 0.0 **** -0.24
16687 H 13.791000944453572 57.43120014733108 118.33408657422143 H 0.0 **** 0.06
16688 H 13.174843174240848 57.92632629183453 116.73899177594797 H 0.0 **** 0.06
16689 H 12.903834056248257 58.964422462665254 118.15926396664037 H 0.0 **** 0.06
16690 H 12.040502610412574 57.4156177776394 118.01163429364755 H 0.0 **** 0.06
16691 C 53.78462050067181 211.0190518828358 171.22541015530237 C 0.0 **** -0.24
16692 H 54.07964095889352 211.81486921405948 171.90900786876688 H 0.0 **** 0.06
16693 H 52.83225216617531 210.59641696428383 171.54967927662778 H 0.0 **** 0.06
16694 H 54.54622206344422 210.239408290245 171.22516312491945 H 0.0 **** 0.06
16695 H 53.67899977841559 211.4243591055195 170.21998117985373 H 0.0 **** 0.06
16696 C 97.52997939016502 13.521899531696704 191.0100243422732 C 0.0 **** -0.24
16697 H 97.65604834249693 12.439258645941862 191.02578730404872 H 0.0 **** 0.06
16698 H 97.44273986871049 13.86128122956228 189.9776046235936 H 0.0 **** 0.06
16699 H 98.39506306537974 13.995326835180947 191.47591701719074 H 0.0 **** 0.06
16700 H 96.62822615112539 13.7908525641771 191.55890090044494 H 0.0 **** 0.06
16701 C 8.485417375642044 28.915957316058496 6.65266331641692 C 0.0 **** -0.24
16702 H 7.81858049171575 29.77813480199694 6.657530416714735 H 0.0 **** 0.06
16703 H 8.831421632847707 28.71883347186275 7.667730503784014 H 0.0 **** 0.06
16704 H 9.341609425385968 29.12240485273489 6.010660418456098 H 0.0 **** 0.06
16705 H 7.95058837189265 28.044034081466393 6.275467141599506 H 0.0 **** 0.06
16706 C 86.73669937972483 137.12550119972286 3.709169392241286 C 0.0 **** -0.24
16707 H 86.47128210851923 138.16943466951045 3.879003829715799 H 0.0 **** 0.06
16708 H 87.80419030270599 137.05294492341545 3.498492219419326 H 0.0 **** 0.06
16709 H 86.17225426185394 136.74063470147257 2.8604829924287074 H 0.0 **** 0.06
16710 H 86.50099229857864 136.541693537764 4.598741152154126 H 0.0 **** 0.06
16711 C 160.13128934382308 94.63602260394246 10.963138528981247 C 0.0 **** -0.24
16712 H 160.99768845780397 93.99041444637025 11.106333558404742 H 0.0 **** 0.06
16713 H 159.3765783872172 94.40225038812208 11.71466569115833 H 0.0 **** 0.06
16714 H 159.71731925100403 94.47364927192383 9.968872583959111 H 0.0 **** 0.06
16715 H 160.43480086083522 95.67785751676705 11.064799269936287 H 0.0 **** 0.06
16716 C 127.33171463583024 93.97488742299527 63.117290989742884 C 0.0 **** -0.24
16717 H 126.7194737837372 94.16831145941376 63.9982917974081 H 0.0 **** 0.06
16718 H 126.76181653240384 93.38003028384628 62.40293303558113 H 0.0 **** 0.06
16719 H 128.22852668588166 93.42972379976834 63.41135884736775 H 0.0 **** 0.06
16720 H 127.61575929222703 94.92117129594476 62.65708820992164 H 0.0 **** 0.06
16721 C 162.0865231175355 131.72756819149157 98.37907810689006 C 0.0 **** -0.24
16722 H 161.14919420790704 131.6731471892905 97.82433219524705 H 0.0 **** 0.06
16723 H 161.8807282331017 132.00736131535353 99.41229270761647 H 0.0 **** 0.06
16724 H 162.73718896483373 132.4724440413067 97.92182539082717 H 0.0 **** 0.06
16725 H 162.57752524730526 130.75426144536942 98.35662734041415 H 0.0 **** 0.06
16726 C 181.66071564071586 192.09488635882767 45.82357125678146 C 0.0 **** -0.24
16727 H 181.69543663359747 191.61607889431104 46.80152012044641 H 0.0 **** 0.06
16728 H 182.12174979537792 193.08143258133063 45.88577433351023 H 0.0 **** 0.06
16729 H 180.6236232337348 192.19748803754362 45.50585384550777 H 0.0 **** 0.06
16730 H 182.20438929757432 191.48515088182475 45.1015555027156 H 0.0 **** 0.06
16731 C 76.31824398390916 169.11838349010617 0.5469284583995488 C 0.0 **** -0.24
16732 H 75.94781086799821 169.63278755583667 -0.33964748091065644 H 0.0 **** 0.06
16733 H 76.59727993788903 169.85284231039407 1.3028142458695129 H 0.0 **** 0.06
16734 H 77.1894486633629 168.51930783445806 0.2817551118393453 H 0.0 **** 0.06
16735 H 75.53679630759012 168.46789770209386 0.941885334420391 H 0.0 **** 0.06
16736 C 116.86156974355636 151.27015838587585 41.79726517813128 C 0.0 **** -0.24
16737 H 115.91680915555226 151.08936897792182 41.28559366201523 H 0.0 **** 0.06
16738 H 117.18862382334935 152.29260634448804 41.60486466053868 H 0.0 **** 0.06
16739 H 117.61435139566201 150.57309497105587 41.429615194369944 H 0.0 **** 0.06
16740 H 116.72774376077335 151.1274406486221 42.86994378995951 H 0.0 **** 0.06
16741 C 189.06411509465318 143.18531479037568 35.015657382516906 C 0.0 **** -0.24
16742 H 189.08917749583625 143.24822933654445 36.10346608325244 H 0.0 **** 0.06
16743 H 189.7963202052461 143.87575347386314 34.59532506057633 H 0.0 **** 0.06
16744 H 188.06915379153477 143.44935885657372 34.659625298778224 H 0.0 **** 0.06
16745 H 189.3035250115696 142.16872683937152 34.7053962859531 H 0.0 **** 0.06
16746 C 157.9793366605316 203.41050545352266 128.93567601121174 C 0.0 **** -0.24
16747 H 159.03827102792656 203.66842664167788 128.93030950586024 H 0.0 **** 0.06
16748 H 157.48901318114883 203.9114209132782 129.7710452365156 H 0.0 **** 0.06
16749 H 157.86798995293054 202.33159128407888 129.04189868368957 H 0.0 **** 0.06
16750 H 157.52197785171694 203.7327825336464 127.99984186322637 H 0.0 **** 0.06
16751 C 26.009285865712428 98.65687757548407 37.117927137491506 C 0.0 **** -0.24
16752 H 25.140987634928308 98.3089437846832 36.55957476354217 H 0.0 **** 0.06
16753 H 26.03994314842687 98.16049620374552 38.088437735319246 H 0.0 **** 0.06
16754 H 25.93902883499304 99.7356649440354 37.26369383923219 H 0.0 **** 0.06
16755 H 26.916463671599388 98.42428754958136 36.561394638071874 H 0.0 **** 0.06
16756 C 195.83394690016564 145.67116269733634 72.68423906636538 C 0.0 **** -0.24
16757 H 196.52514740815553 144.83689550311925 72.57026003248173 H 0.0 **** 0.06
16758 H 194.93975300071492 145.48587704910682 72.08865729669266 H 0.0 **** 0.06
16759 H 196.31318919445704 146.58866062085008 72.34343778671222 H 0.0 **** 0.06
16760 H 195.55727371366015 145.77356906228272 73.73329865083777 H 0.0 **** 0.06
16761 C 5.675088250952555 125.16450737357222 121.87904394586404 C 0.0 **** -0.24
16762 H 4.995614512492644 124.38971008793912 121.52443326426207 H 0.0 **** 0.06
16763 H 5.420926642870022 125.42642184411271 122.90645858232334 H 0.0 **** 0.06
16764 H 5.582991280271997 126.04605473116273 121.2448771417585 H 0.0 **** 0.06
16765 H 6.7001408524063635 124.79371369198485 121.84140921962508 H 0.0 **** 0.06
16766 C 175.03966347604018 11.682737170706844 60.77494771263599 C 0.0 **** -0.24
16767 H 174.94094415180265 12.766589800530596 60.72215477388153 H 0.0 **** 0.06
16768 H 175.38961240263103 11.397759221586966 61.76782458179957 H 0.0 **** 0.06
16769 H 175.75715290715047 11.347279938436941 60.02621912691103 H 0.0 **** 0.06
16770 H 174.07172158571086 11.219662407148235 60.58472314181171 H 0.0 **** 0.06
16771 C 77.68203420092874 38.83365938655376 206.0504249073059 C 0.0 **** -0.24
16772 H 78.29952701940226 37.99031723197757 206.3580167630672 H 0.0 **** 0.06
16773 H 76.73676927720805 38.4659176918403 205.65231136541752 H 0.0 **** 0.06
16774 H 78.20297863447627 39.40397200291426 205.28054272494379 H 0.0 **** 0.06
16775 H 77.49072156838417 39.475850148885115 206.91010312459449 H 0.0 **** 0.06
16776 C 25.926537944463917 27.929130749457556 160.29206392443052 C 0.0 **** -0.24
16777 H 26.443179773770765 28.51452978781373 161.05178446545372 H 0.0 **** 0.06
16778 H 24.938511693930224 28.354053529463528 160.1164567283463 H 0.0 **** 0.06
16779 H 25.823513952834432 26.899612438410898 160.63447776086173 H 0.0 **** 0.06
16780 H 26.500364161158956 27.947530401291402 159.3653751595302 H 0.0 **** 0.06
16781 C 195.30441853221095 117.26972862871135 7.081300554104203 C 0.0 **** -0.24
16782 H 196.3212670485247 117.25295261437763 6.690680821396256 H 0.0 **** 0.06
16783 H 195.21224292814793 116.5386404177455 7.885942003435645 H 0.0 **** 0.06
16784 H 194.60407726433823 117.02192719562656 6.283867365978807 H 0.0 **** 0.06
16785 H 195.07908551296367 118.26479166566857 7.466864744231501 H 0.0 **** 0.06
16786 C 7.088712802173305 29.771897459478353 78.96269719426452 C 0.0 **** -0.24
16787 H 6.47001968944673 28.89096295357251 79.13343196841889 H 0.0 **** 0.06
16788 H 8.108168692220062 29.569459451633733 79.29267097460787 H 0.0 **** 0.06
16789 H 6.6846793204759365 30.61402572854705 79.52477020103872 H 0.0 **** 0.06
16790 H 7.09122567332642 30.012437076022124 77.89895167143258 H 0.0 **** 0.06
16791 C 63.46595881257082 136.37880758882062 88.50594082685643 C 0.0 **** -0.24
16792 H 62.93970603878819 137.06488359351385 89.16936215971975 H 0.0 **** 0.06
16793 H 63.42830299412668 136.76069777472378 87.48584570498502 H 0.0 **** 0.06
16794 H 62.98983718008384 135.39861348184172 88.5457008129614 H 0.0 **** 0.06
16795 H 64.50461189548133 136.29130316163457 88.82428007996356 H 0.0 **** 0.06
16796 C 146.42247683716033 100.76386744428187 44.40762114612468 C 0.0 **** -0.24
16797 H 145.50666957044723 100.32863218173374 44.007117138054014 H 0.0 **** 0.06
16798 H 146.17276912562744 101.62318048109164 45.03177844860598 H 0.0 **** 0.06
16799 H 147.0616411287648 101.08529032915165 43.584735073183765 H 0.0 **** 0.06
16800 H 146.9476995325303 100.01973499434312 45.00592888028214 H 0.0 **** 0.06
16801 C 139.34074210093797 189.06989203514584 99.35957897277241 C 0.0 **** -0.24
16802 H 139.49852387153294 189.22942347202496 98.29246192820129 H 0.0 **** 0.06
16803 H 140.28796000783814 189.18307978362026 99.88695825575108 H 0.0 **** 0.06
16804 H 138.95136466249062 188.06532302943017 99.521635881824 H 0.0 **** 0.06
16805 H 138.62581646718297 189.80248182772584 99.73443717855484 H 0.0 **** 0.06
16806 C 189.32600003031564 85.58260973579651 163.3398245093149 C 0.0 **** -0.24
16807 H 188.90854990975066 85.49665198792188 162.33645378808157 H 0.0 **** 0.06
16808 H 189.69424676328987 84.60848172705742 163.664201035666 H 0.0 **** 0.06
16809 H 188.55301763029638 85.92608478912304 164.027112825272 H 0.0 **** 0.06
16810 H 190.1481110241003 86.29706970846907 163.33036040302628 H 0.0 **** 0.06
16811 C 206.50405469057335 138.53654421566466 180.20593716322605 C 0.0 **** -0.24
16812 H 207.38870803030753 137.89955237147007 180.1976304614879 H 0.0 **** 0.06
16813 H 206.54688306201805 139.22793460272152 179.3652819582002 H 0.0 **** 0.06
16814 H 206.47049604693407 139.09889747076522 181.1386181142035 H 0.0 **** 0.06
16815 H 205.6107260416664 137.9170240618064 180.12320959501574 H 0.0 **** 0.06
16816 C 113.16785768132047 95.83141179715666 135.04449819873764 C 0.0 **** -0.24
16817 H 112.8445344623592 95.88670391276837 136.08407985424452 H 0.0 **** 0.06
16818 H 113.2299073439799 94.78737246673681 134.73890559706075 H 0.0 **** 0.06
16819 H 114.14727315138111 96.29863430097161 134.94433035545813 H 0.0 **** 0.06
16820 H 112.44933442099659 96.35379823256075 134.41270481721887 H 0.0 **** 0.06
16821 C 133.0684804334361 168.20618958270632 66.36251154169415 C 0.0 **** -0.24
16822 H 132.25237419808354 167.7286184155765 65.81962891915586 H 0.0 **** 0.06
16823 H 132.6827760823818 169.0633546685894 66.91465129765703 H 0.0 **** 0.06
16824 H 133.8276425169879 168.5395070484771 65.65595545054663 H 0.0 **** 0.06
16825 H 133.5074040499676 167.49176313791315 67.05889939986776 H 0.0 **** 0.06
16826 C 81.91378409043269 122.10646530389522 186.32243048436743 C 0.0 **** -0.24
16827 H 81.75497117179806 121.05455677887767 186.56043059610417 H 0.0 **** 0.06
16828 H 81.0881887683082 122.46930455984386 185.71050551472308 H 0.0 **** 0.06
16829 H 82.84935336337558 122.21680281073031 185.77302632782758 H 0.0 **** 0.06
16830 H 81.96468796815388 122.6838794063807 187.24575485495745 H 0.0 **** 0.06
16831 C 96.31140935869031 19.194892038164312 26.090255179819664 C 0.0 **** -0.24
16832 H 95.69565521022251 20.087507384861368 25.98059294652333 H 0.0 **** 0.06
16833 H 95.68760357750661 18.359224335345516 26.40935233545723 H 0.0 **** 0.06
16834 H 97.08479057922004 19.377277103767653 26.8369909613387 H 0.0 **** 0.06
16835 H 96.77869681034592 18.956397649218445 25.13434513391674 H 0.0 **** 0.06
16836 C 5.3905506687248135 7.099090608286033 67.69127798191545 C 0.0 **** -0.24
16837 H 4.5082148201341 6.662208100954459 67.22431840078178 H 0.0 **** 0.06
16838 H 5.384997197315954 8.177915866498978 67.53956002747412 H 0.0 **** 0.06
16839 H 6.286697238198997 6.672695927566323 67.24131573205261 H 0.0 **** 0.06
16840 H 5.381098007726024 6.881680622946064 68.75959473809593 H 0.0 **** 0.06
16841 C 115.38875751961918 173.87322802837613 78.26293107347351 C 0.0 **** -0.24
16842 H 115.36007180414761 174.25329850992202 77.24129576138074 H 0.0 **** 0.06
16843 H 116.37371489880915 174.0615513909744 78.69210637294822 H 0.0 **** 0.06
16844 H 115.19421841529963 172.80102577859415 78.25637371070542 H 0.0 **** 0.06
16845 H 114.62967930015886 174.3774892564631 78.86029025682899 H 0.0 **** 0.06
16846 C 85.99663582840162 58.31776241922978 145.91030410801983 C 0.0 **** -0.24
16847 H 86.2977523086077 57.84026997021857 144.97824405022084 H 0.0 **** 0.06
16848 H 84.9493040883811 58.09138802881199 146.1115378217707 H 0.0 **** 0.06
16849 H 86.12488359224284 59.39666642807873 145.82361624486663 H 0.0 **** 0.06
16850 H 86.61332892388668 57.94310302140053 146.72733538052682 H 0.0 **** 0.06
16851 C 159.89537261845362 79.68419817769575 38.76712294322219 C 0.0 **** -0.24
16852 H 159.13454822218227 79.30236419895192 38.08609857274514 H 0.0 **** 0.06
16853 H 160.7935837274035 79.07084126277994 38.68717760554317 H 0.0 **** 0.06
16854 H 159.52014995669663 79.64683710892115 39.78906140268377 H 0.0 **** 0.06
16855 H 160.13405353333673 80.71444228562723 38.50443372892049 H 0.0 **** 0.06
16856 C 192.5449958884186 122.24221030988612 105.17094114751684 C 0.0 **** -0.24
16857 H 191.593326133432 122.62761869471724 104.8029327003954 H 0.0 **** 0.06
16858 H 192.38272262934066 121.71555414834135 106.11113570511837 H 0.0 **** 0.06
16859 H 193.2346196296262 123.07053998836433 105.33162458249153 H 0.0 **** 0.06
16860 H 192.96632963696035 121.55559957988952 104.43714164979603 H 0.0 **** 0.06
16861 C 150.1957635369369 32.82127707168408 101.65456337167849 C 0.0 **** -0.24
16862 H 150.8317627046734 33.69204346333734 101.49955026358303 H 0.0 **** 0.06
16863 H 149.67068291913336 32.918677667009376 102.60479945088257 H 0.0 **** 0.06
16864 H 150.8093628968952 31.92115366878255 101.66894397839651 H 0.0 **** 0.06
16865 H 149.4694735240397 32.753172457163316 100.84359743891808 H 0.0 **** 0.06
16866 C 16.935524578860637 147.82291659558945 28.582804238347876 C 0.0 **** -0.24
16867 H 16.52275319518388 147.12509823036868 29.31070494231571 H 0.0 **** 0.06
16868 H 16.27511242900087 147.87656431846574 27.716997181325866 H 0.0 **** 0.06
16869 H 17.921122917808447 147.47961148947383 28.268863718072794 H 0.0 **** 0.06
16870 H 17.02243273725857 148.8111386272716 29.035643440879767 H 0.0 **** 0.06
16871 C 99.05633479906821 130.91492572157404 47.74451105024737 C 0.0 **** -0.24
16872 H 99.88527344623505 130.2122440528389 47.82970101010716 H 0.0 **** 0.06
16873 H 99.11956449244762 131.64937856256722 48.54860009922349 H 0.0 **** 0.06
16874 H 98.11236596370175 130.37549483896936 47.819652854479074 H 0.0 **** 0.06
16875 H 99.10849852627886 131.42413772061042 46.7828212867113 H 0.0 **** 0.06
16876 C 130.6826380913103 188.67279171019757 189.36206018409285 C 0.0 **** -0.24
16877 H 130.36242554970784 189.6539039191884 189.71004993426558 H 0.0 **** 0.06
16878 H 130.09453803197175 188.38606057146936 188.4888352684788 H 0.0 **** 0.06
16879 H 130.5355732661796 187.93957210367827 190.15545421787166 H 0.0 **** 0.06
16880 H 131.738304902464 188.70936914620893 189.0930047759357 H 0.0 **** 0.06
16881 C 176.46657894182562 6.644127568635895 48.71819173613886 C 0.0 **** -0.24
16882 H 175.874032340235 6.467330782868785 47.82022482778609 H 0.0 **** 0.06
16883 H 175.8523896130405 6.46095799280846 49.59974236333812 H 0.0 **** 0.06
16884 H 176.81589526133706 7.676080515998123 48.72492532574745 H 0.0 **** 0.06
16885 H 177.32317335241248 5.9704207591987455 48.72555925434932 H 0.0 **** 0.06
16886 C 95.29921620122981 149.82115389611698 56.208053182697356 C 0.0 **** -0.24
16887 H 95.79790166171314 150.7432482976498 55.90857718735663 H 0.0 **** 0.06
16888 H 94.56257370881197 149.5449945719509 55.453801899905 H 0.0 **** 0.06
16889 H 94.80066119180204 149.97240417078365 57.16571460575814 H 0.0 **** 0.06
16890 H 96.03759126158774 149.0243524496035 56.30529456382975 H 0.0 **** 0.06
16891 C 94.17632530441968 216.689418303742 159.23264864713457 C 0.0 **** -0.24
16892 H 94.80221124431291 216.43930107512756 160.08816735919186 H 0.0 **** 0.06
16893 H 94.36745866322745 215.98416859036905 158.42356581778677 H 0.0 **** 0.06
16894 H 94.40889118658107 217.7002626839556 158.89521729992072 H 0.0 **** 0.06
16895 H 93.12653409445788 216.6350418283663 159.52170877767406 H 0.0 **** 0.06
16896 C 8.996122079495919 84.1632696460598 118.99762502421231 C 0.0 **** -0.24
16897 H 9.05762789187915 84.42726049998726 120.05363828635694 H 0.0 **** 0.06
16898 H 8.375121815497664 83.27399059749348 118.88230542223351 H 0.0 **** 0.06
16899 H 9.996305252299138 83.96122443201136 118.61468314295979 H 0.0 **** 0.06
16900 H 8.553941174501219 84.9905329537745 118.44227503815677 H 0.0 **** 0.06
16901 C 163.6161629418085 30.12597078377695 156.69043598368734 C 0.0 **** -0.24
16902 H 163.12336169012167 30.42595476573638 155.76583084234915 H 0.0 **** 0.06
16903 H 163.15388177742017 30.641536136720646 157.53257471266176 H 0.0 **** 0.06
16904 H 164.67358161254683 30.38750584771907 156.64005425867708 H 0.0 **** 0.06
16905 H 163.51529367889793 29.04937956315291 156.824061785055 H 0.0 **** 0.06
16906 C 80.92547981078435 68.64376186034633 92.79620339170185 C 0.0 **** -0.24
16907 H 80.73411234189957 68.4871230944253 93.85744554761362 H 0.0 **** 0.06
16908 H 80.06818975598894 68.30140169025185 92.21774821633397 H 0.0 **** 0.06
16909 H 81.81187801700112 68.0821611569082 92.50067672255278 H 0.0 **** 0.06
16910 H 81.08915824865228 69.7049859895107 92.6097151947576 H 0.0 **** 0.06
16911 C 93.41239632749841 115.43386294921758 6.6300404543101195 C 0.0 **** -0.24
16912 H 92.35118278980235 115.5782899678734 6.833286129333658 H 0.0 **** 0.06
16913 H 93.58409477668584 114.40584900536767 6.308262363372535 H 0.0 **** 0.06
16914 H 93.98590094423042 115.63285833297992 7.535047868115726 H 0.0 **** 0.06
16915 H 93.72799037463068 116.11859137452974 5.842666640381992 H 0.0 **** 0.06
16916 C 141.38359550522853 121.4336401977282 120.36529991872426 C 0.0 **** -0.24
16917 H 140.51259398745674 121.53629978128212 119.71859481524176 H 0.0 **** 0.06
16918 H 141.15562385926899 120.74005313252555 121.17568012344854 H 0.0 **** 0.06
16919 H 141.64291544590935 122.4072287509154 120.78242178489943 H 0.0 **** 0.06
16920 H 142.2236365916565 121.05175229526789 119.78562179243731 H 0.0 **** 0.06
16921 C 104.32672142628 187.78037828939978 120.91313698471167 C 0.0 **** -0.24
16922 H 104.61140792122033 188.83232240747228 120.9326384512744 H 0.0 **** 0.06
16923 H 103.25710811547451 187.68979190554947 121.10304910434185 H 0.0 **** 0.06
16924 H 104.88015770288108 187.2401931594739 121.68072179164712 H 0.0 **** 0.06
16925 H 104.55974024612378 187.3599350319997 119.93366219013849 H 0.0 **** 0.06
16926 C 4.802957898231092 23.513826145377564 100.58703105566723 C 0.0 **** -0.24
16927 H 4.248543508653981 24.383602434512312 100.23465054060121 H 0.0 **** 0.06
16928 H 4.627249512260143 22.674938808038576 99.91475677470912 H 0.0 **** 0.06
16929 H 4.466761975347225 23.2525320372949 101.59097171415534 H 0.0 **** 0.06
16930 H 5.867895533624662 23.74652154085088 100.6094326880454 H 0.0 **** 0.06
16931 C 167.49145583785463 50.44963008100537 17.78603065846727 C 0.0 **** -0.24
16932 H 168.4318284583204 50.998331407184224 17.83155334362945 H 0.0 **** 0.06
16933 H 166.67242799185357 51.14683295693335 17.608921435930938 H 0.0 **** 0.06
16934 H 167.3285309422995 49.92812884292043 18.72924859450214 H 0.0 **** 0.06
16935 H 167.53399170273764 49.72478958139962 16.97302260906571 H 0.0 **** 0.06
16936 C 77.5560414285113 144.5965296859098 59.24704499010022 C 0.0 **** -0.24
16937 H 78.10749646345069 143.65758796219689 59.2895527625531 H 0.0 **** 0.06
16938 H 78.01791083269332 145.32039026180684 59.918756731430975 H 0.0 **** 0.06
16939 H 76.52294693269126 144.4260696801951 59.55034070332512 H 0.0 **** 0.06
16940 H 77.57582242816075 144.98223625417296 58.227536628371226 H 0.0 **** 0.06
16941 C 56.510610419902264 39.68881007514693 137.85485528696756 C 0.0 **** -0.24
16942 H 56.114206335800986 39.01101656597429 138.6111375784982 H 0.0 **** 0.06
16943 H 57.307420551914504 40.29233013461484 138.28961762318994 H 0.0 **** 0.06
16944 H 55.712585437736436 40.34124826637371 137.4985482643359 H 0.0 **** 0.06
16945 H 56.905748586316435 39.109292599458115 137.02024431827488 H 0.0 **** 0.06
16946 C 61.32762757979492 121.86311185205885 140.71744424449338 C 0.0 **** -0.24
16947 H 61.58545814346172 120.85449279643105 140.3951770727661 H 0.0 **** 0.06
16948 H 60.3467032035046 121.85307780294927 141.193617362853 H 0.0 **** 0.06
16949 H 61.304733229936744 122.52583929610468 139.85311890177172 H 0.0 **** 0.06
16950 H 62.073005344388775 122.21860774959687 141.42906478668073 H 0.0 **** 0.06
16951 C 16.890898048592007 123.26511448923297 80.2816299109511 C 0.0 **** -0.24
16952 H 16.353956855871658 123.29181680370503 79.33359653956535 H 0.0 **** 0.06
16953 H 17.95401666192714 123.42608690835537 80.09957813036272 H 0.0 **** 0.06
16954 H 16.744933712627045 122.29359345138398 80.7536123463396 H 0.0 **** 0.06
16955 H 16.51142143587478 124.04882531939894 80.93682756154726 H 0.0 **** 0.06
16956 C 159.62335908241283 174.26349754142547 213.50210227827205 C 0.0 **** -0.24
16957 H 160.20755393836635 174.22149436060045 212.58203800630702 H 0.0 **** 0.06
16958 H 160.26267446362445 174.59092864978254 214.32239421493188 H 0.0 **** 0.06
16959 H 159.22441043330232 173.27404689813216 213.72434657496592 H 0.0 **** 0.06
16960 H 158.8008829608569 174.96767382971825 213.37747917823086 H 0.0 **** 0.06
16961 C 30.237216654718665 49.712840894993406 138.8389818037229 C 0.0 **** -0.24
16962 H 29.853981690365785 50.33546487901239 138.02994812729247 H 0.0 **** 0.06
16963 H 30.41443371376795 50.33159297238312 139.71947890289505 H 0.0 **** 0.06
16964 H 31.172157314103103 49.248761141498235 138.52676062694792 H 0.0 **** 0.06
16965 H 29.508698736907306 48.938520943949726 139.07801398226815 H 0.0 **** 0.06
16966 C 42.23079932075524 182.64996802632845 54.22393014251264 C 0.0 **** -0.24
16967 H 42.67882265545563 183.17344259761595 53.378584874152466 H 0.0 **** 0.06
16968 H 41.39518574997663 182.0431683236647 53.87393838231628 H 0.0 **** 0.06
16969 H 41.87201631314963 183.37738251565978 54.95251236901032 H 0.0 **** 0.06
16970 H 42.97815131822222 182.00722694827294 54.689193546875174 H 0.0 **** 0.06
16971 C 117.21160406990874 131.08945581136436 145.06744301340063 C 0.0 **** -0.24
16972 H 116.74939198404674 131.11462275477362 146.05458067333984 H 0.0 **** 0.06
16973 H 118.21077102130691 130.6597046546035 145.1454846705647 H 0.0 **** 0.06
16974 H 117.28138464652575 132.10370157214078 144.67287316664414 H 0.0 **** 0.06
16975 H 116.60493788448686 130.4802755635277 144.398161544601 H 0.0 **** 0.06
16976 C 104.79302951994896 150.87657116981933 124.65189699776492 C 0.0 **** -0.24
16977 H 104.40173865229849 150.1076739982214 123.98553768238581 H 0.0 **** 0.06
16978 H 105.6777515019698 151.32973224425405 124.20418481441122 H 0.0 **** 0.06
16979 H 105.05832429614537 150.42757871018887 125.60882415408626 H 0.0 **** 0.06
16980 H 104.03209352655273 151.6423020527895 124.80870833955798 H 0.0 **** 0.06
16981 C 86.52677881210224 135.2247460272137 133.63388946119107 C 0.0 **** -0.24
16982 H 87.04262091099429 134.85899108450394 132.74528132981828 H 0.0 **** 0.06
16983 H 86.93254028652058 134.73436773035598 134.51774909841743 H 0.0 **** 0.06
16984 H 85.46272432059988 135.00542753728269 133.5506755135478 H 0.0 **** 0.06
16985 H 86.66968817679953 136.302572111782 133.71759130776684 H 0.0 **** 0.06
16986 C 100.48320284716647 215.0802943925845 88.03556965647556 C 0.0 **** -0.24
16987 H 101.48484685480787 214.99972375073662 87.61406784252353 H 0.0 **** 0.06
16988 H 100.09720795341809 216.0858621608569 87.86564156031932 H 0.0 **** 0.06
16989 H 100.52198241819377 214.88249159265308 89.10702210198298 H 0.0 **** 0.06
16990 H 99.82783993967132 214.35275623339476 87.55545212525448 H 0.0 **** 0.06
16991 C 114.04190811456756 27.614021745230147 56.48153418496992 C 0.0 **** -0.24
16992 H 114.97043051442672 27.304741256144894 56.0021096746174 H 0.0 **** 0.06
16993 H 114.25514171272683 27.964121550273788 57.49248756126883 H 0.0 **** 0.06
16994 H 113.35613187777061 26.768005053504808 56.526576901847264 H 0.0 **** 0.06
16995 H 113.58680817183073 28.420036263703423 55.90570975081252 H 0.0 **** 0.06
16996 C 8.392490450775654 32.523303016160355 70.2379029673513 C 0.0 **** -0.24
16997 H 7.350331002076274 32.39752719588677 70.5315613811703 H 0.0 **** 0.06
16998 H 9.029583185736954 32.445391828854156 71.11932559214905 H 0.0 **** 0.06
16999 H 8.52524749177411 33.503323907181425 69.77895551068086 H 0.0 **** 0.06
17000 H 8.664504566056678 31.747683210168532 69.52295377262327 H 0.0 **** 0.06
17001 C 141.36166840409095 95.60848969479026 175.63399587400562 C 0.0 **** -0.24
17002 H 141.5523217778682 96.48972380890281 176.2457881988694 H 0.0 **** 0.06
17003 H 140.3254058268023 95.61990906232727 175.29442169125014 H 0.0 **** 0.06
17004 H 141.53991079206298 94.71064352442444 176.22551598095404 H 0.0 **** 0.06
17005 H 142.02723011598266 95.61388471937254 174.7715617513855 H 0.0 **** 0.06
17006 C 194.8493465807848 23.674611078772116 98.97346113020167 C 0.0 **** -0.24
17007 H 194.670457293992 22.73121595889218 99.49099995676791 H 0.0 **** 0.06
17008 H 195.57939360194933 24.26157369789233 99.53114596426731 H 0.0 **** 0.06
17009 H 193.91553058600817 24.229947069642947 98.8990452361334 H 0.0 **** 0.06
17010 H 195.23325330164255 23.47220696153053 97.97308602225077 H 0.0 **** 0.06
17011 C 152.6822018597896 2.1555349453638257 144.4969856729747 C 0.0 **** -0.24
17012 H 153.23890719643668 1.3425871618400578 144.9622653655304 H 0.0 **** 0.06
17013 H 151.63893455128908 2.1085991018023194 144.81077621255895 H 0.0 **** 0.06
17014 H 152.7403009571808 2.0619948526783674 143.4122295276665 H 0.0 **** 0.06
17015 H 153.11082233399065 3.1103080791512454 144.80227880372007 H 0.0 **** 0.06
17016 C 66.12206417499016 119.86470801111243 24.231118037877422 C 0.0 **** -0.24
17017 H 65.38844810697452 120.36879064170195 24.86081821654153 H 0.0 **** 0.06
17018 H 66.37825391418824 120.50654792270716 23.388200792798386 H 0.0 **** 0.06
17019 H 65.70158757681378 118.92950464832505 23.862467493551776 H 0.0 **** 0.06
17020 H 67.01757773925289 119.65598301733097 24.815062763625406 H 0.0 **** 0.06
17021 C 109.54998028211348 211.73168392019522 96.33156903515503 C 0.0 **** -0.24
17022 H 109.46077727136368 212.00574801195518 97.38268122222034 H 0.0 **** 0.06
17023 H 110.40994184086811 211.07408161940793 96.19970740512433 H 0.0 **** 0.06
17024 H 109.68481290856046 212.63167116662925 95.73243279094193 H 0.0 **** 0.06
17025 H 108.64483471701566 211.21498739634382 96.012773895052 H 0.0 **** 0.06
17026 C 89.44226641796247 103.69669294663 101.38620460351535 C 0.0 **** -0.24
17027 H 90.11186742372617 103.77762546147228 100.52987898811546 H 0.0 **** 0.06
17028 H 89.55843944514145 102.7138419013282 101.84445978426652 H 0.0 **** 0.06
17029 H 88.41207455523947 103.82335359976439 101.0545015298328 H 0.0 **** 0.06
17030 H 89.68813286583448 104.4690350753503 102.11413416147269 H 0.0 **** 0.06
17031 C 190.4955432266192 120.90735329456997 37.92484138203447 C 0.0 **** -0.24
17032 H 190.21291036546486 121.93619452396372 37.70414813296527 H 0.0 **** 0.06
17033 H 189.61311940245892 120.26875457288538 37.86805202527103 H 0.0 **** 0.06
17034 H 190.91906225649655 120.85469046074464 38.92742124442117 H 0.0 **** 0.06
17035 H 191.23584887838766 120.56953264302497 37.19909287236153 H 0.0 **** 0.06
17036 C 206.71100493419584 185.09721495928457 42.77729272034118 C 0.0 **** -0.24
17037 H 207.04785642769824 185.6125636025787 41.8782476876341 H 0.0 **** 0.06
17038 H 206.19978446340724 185.8047592079841 43.43071748039431 H 0.0 **** 0.06
17039 H 207.57125278436394 184.67630610042536 43.29839973078536 H 0.0 **** 0.06
17040 H 206.02532020957574 184.29618238763192 42.50204482235128 H 0.0 **** 0.06
17041 C 63.722804871630956 124.30905325088112 107.56491167960377 C 0.0 **** -0.24
17042 H 63.49899446734328 123.24656752360552 107.66836285399097 H 0.0 **** 0.06
17043 H 62.794370470390774 124.86320143671425 107.42214435041194 H 0.0 **** 0.06
17044 H 64.37317728970358 124.46068950517962 106.70327584829408 H 0.0 **** 0.06
17045 H 64.22342401606703 124.66390268016467 108.46587310732787 H 0.0 **** 0.06
17046 C 189.41601917428108 153.34398744397333 61.49909487998309 C 0.0 **** -0.24
17047 H 189.30445321367205 153.64671302126675 62.53952718066262 H 0.0 **** 0.06
17048 H 190.1865193575253 152.57506625434968 61.42507564474201 H 0.0 **** 0.06
17049 H 189.70485127181706 154.20686306031428 60.898515296158294 H 0.0 **** 0.06
17050 H 188.46979394890138 152.94668732389863 61.13176454578635 H 0.0 **** 0.06
17051 C 30.506538237460717 114.28626362217733 139.35574155642348 C 0.0 **** -0.24
17052 H 30.767107684006447 115.16269043956163 139.9493497932683 H 0.0 **** 0.06
17053 H 29.754265548845126 114.55920009835921 138.61611691676632 H 0.0 **** 0.06
17054 H 30.108367996677117 113.51040843498441 140.01095247907273 H 0.0 **** 0.06
17055 H 31.39638839304729 113.9124731051005 138.8496966190225 H 0.0 **** 0.06
17056 C 99.30557225540498 138.9217973515867 185.3093961190532 C 0.0 **** -0.24
17057 H 99.03606550583258 139.9763445371334 185.35854350336228 H 0.0 **** 0.06
17058 H 100.1487164006263 138.73087945360464 185.9729565425798 H 0.0 **** 0.06
17059 H 99.58154083816284 138.66472078224848 184.2863520689598 H 0.0 **** 0.06
17060 H 98.45431016242999 138.31496534866255 185.61930888115702 H 0.0 **** 0.06
17061 C 76.40317444770558 31.45057528106534 158.66741522395438 C 0.0 **** -0.24
17062 H 76.9903396218027 31.819782133141842 157.82509608174774 H 0.0 **** 0.06
17063 H 76.40824471322095 30.360821186663458 158.66217742128003 H 0.0 **** 0.06
17064 H 75.37787647900451 31.810898240586482 158.58031421220846 H 0.0 **** 0.06
17065 H 76.83871530704737 31.812458248743013 159.59845281920133 H 0.0 **** 0.06
17066 C 156.98920474307204 104.77907838992007 51.9385462230519 C 0.0 **** -0.24
17067 H 156.75794810802233 104.49963524492114 50.91035069438834 H 0.0 **** 0.06
17068 H 156.0654028342306 104.82780712728942 52.51640235319854 H 0.0 **** 0.06
17069 H 157.47596268759708 105.7541849687126 51.94869492458395 H 0.0 **** 0.06
17070 H 157.65460052267287 104.03545289538886 52.375913001269396 H 0.0 **** 0.06
17071 C 86.40190620831065 75.00107541590438 170.1788339721905 C 0.0 **** -0.24
17072 H 87.35090455599409 75.49433140747146 169.96533497241546 H 0.0 **** 0.06
17073 H 86.3289892441331 74.08449970848221 169.59303346534128 H 0.0 **** 0.06
17074 H 85.58022739073239 75.66653312894624 169.91457446938534 H 0.0 **** 0.06
17075 H 86.34810699481837 74.76067501827731 171.24077532426978 H 0.0 **** 0.06
17076 C 87.38825785416778 36.6839574909755 107.45208335878586 C 0.0 **** -0.24
17077 H 87.77618197019332 35.676718867198105 107.30121133976543 H 0.0 **** 0.06
17078 H 86.81420838410516 36.71632941802869 108.37780707106411 H 0.0 **** 0.06
17079 H 86.74432289480278 36.95320163454059 106.61489491244838 H 0.0 **** 0.06
17080 H 88.21921489682698 37.38708430720402 107.51343659297747 H 0.0 **** 0.06
17081 C 200.49114013957475 163.3885731414543 50.09682840777748 C 0.0 **** -0.24
17082 H 200.73259271494743 163.65300411359073 49.06749753511062 H 0.0 **** 0.06
17083 H 200.66815301166918 164.2473826177451 50.74386306967179 H 0.0 **** 0.06
17084 H 201.12046223859915 162.55784027563172 50.414799670407376 H 0.0 **** 0.06
17085 H 199.44262740088695 163.0960921765596 50.1590382974054 H 0.0 **** 0.06
17086 C 43.07481790931743 41.30674210520192 210.97492603742796 C 0.0 **** -0.24
17087 H 42.04280617430655 41.2255982586062 211.31805518673661 H 0.0 **** 0.06
17088 H 43.65147648586799 41.889857939960834 211.6926411192986 H 0.0 **** 0.06
17089 H 43.094918049499896 41.80197663082302 210.0040383566241 H 0.0 **** 0.06
17090 H 43.506821741944236 40.310954376547514 210.88431369615978 H 0.0 **** 0.06
17091 C 26.505134842546013 9.370827872383813 130.34169934374933 C 0.0 **** -0.24
17092 H 27.58488439625873 9.374815010198972 130.49138282199982 H 0.0 **** 0.06
17093 H 26.067041369284198 8.532992434876576 130.8846791182242 H 0.0 **** 0.06
17094 H 26.28592293672726 9.270015659107912 129.27942576791708 H 0.0 **** 0.06
17095 H 26.083149569849894 10.305345308283648 130.7126396938723 H 0.0 **** 0.06
17096 C 116.59764422848973 91.22806563175901 192.88594473363727 C 0.0 **** -0.24
17097 H 116.57756856255976 90.17818897706009 193.17839150716412 H 0.0 **** 0.06
17098 H 116.30469208180354 91.84672214707017 193.73418838495192 H 0.0 **** 0.06
17099 H 115.90329799649352 91.38960410325181 192.06181625028026 H 0.0 **** 0.06
17100 H 117.60539786703517 91.49795497615061 192.5702843440746 H 0.0 **** 0.06
17101 C 144.85099105289885 98.88515579266657 16.715800578107746 C 0.0 **** -0.24
17102 H 145.16959689739218 98.12687345434632 16.000297710376287 H 0.0 **** 0.06
17103 H 145.70274805155452 99.1924269158181 17.322012254703964 H 0.0 **** 0.06
17104 H 144.0756073943508 98.47240099230005 17.36109724759848 H 0.0 **** 0.06
17105 H 144.4555145537276 99.74762554148818 16.179526018495494 H 0.0 **** 0.06
17106 C 118.2861149864235 204.95092382553182 169.70182614938028 C 0.0 **** -0.24
17107 H 119.13494120514666 204.74947873826045 170.3555899220874 H 0.0 **** 0.06
17108 H 118.20998266347765 204.16374435786204 168.95182582329588 H 0.0 **** 0.06
17109 H 118.42863791087838 205.91160066399777 169.2073290729893 H 0.0 **** 0.06
17110 H 117.37094970115906 204.98051980717023 170.29406996153617 H 0.0 **** 0.06
17111 C 71.91264464869357 5.568576276522691 149.60742993788824 C 0.0 **** -0.24
17112 H 72.93674984956493 5.871287627887611 149.38838538280805 H 0.0 **** 0.06
17113 H 71.9091203646268 4.898580640101599 150.4675616568407 H 0.0 **** 0.06
17114 H 71.49325387991752 5.0547007961417805 148.74344817772635 H 0.0 **** 0.06
17115 H 71.31316237604801 6.451853586382185 149.83158917635456 H 0.0 **** 0.06
17116 C 87.07934464764936 28.94962700071369 170.6096968584636 C 0.0 **** -0.24
17117 H 87.95060943464715 29.598715298426896 170.5241212588695 H 0.0 **** 0.06
17118 H 86.64840384934494 28.789140632817265 169.6209024870182 H 0.0 **** 0.06
17119 H 86.33884709718934 29.4193505268847 171.2580511939638 H 0.0 **** 0.06
17120 H 87.37934567564928 27.99265203550702 171.0353298183608 H 0.0 **** 0.06
17121 C 69.9922295626627 39.93633288648218 207.0212360238978 C 0.0 **** -0.24
17122 H 69.14055953145247 39.260825404865145 207.11100218749317 H 0.0 **** 0.06
17123 H 70.84689378463177 39.513899169200386 207.54949822817878 H 0.0 **** 0.06
17124 H 69.7359248448572 40.90255599222321 207.45686999225558 H 0.0 **** 0.06
17125 H 70.24297203244127 40.067301899049085 205.96893166876657 H 0.0 **** 0.06
17126 C 162.33759962534802 9.774473196304456 124.80219164365404 C 0.0 **** -0.24
17127 H 162.39305981200795 10.480308615659084 123.9730706177317 H 0.0 **** 0.06
17128 H 162.9958798318832 10.10519654020112 125.60582861618288 H 0.0 **** 0.06
17129 H 162.64867910364467 8.787576555393798 124.46017598852534 H 0.0 **** 0.06
17130 H 161.31218536326332 9.724547573703319 125.16893155984634 H 0.0 **** 0.06
17131 C 154.44460587315228 6.9883072051620445 68.37130898862517 C 0.0 **** -0.24
17132 H 154.68418447662043 5.985070750633881 68.72495267937771 H 0.0 **** 0.06
17133 H 153.41288128143333 7.226707109266982 68.63247562677205 H 0.0 **** 0.06
17134 H 154.56443537573665 7.030671936555109 67.28927791841986 H 0.0 **** 0.06
17135 H 155.11382243327864 7.709004377241982 68.84058919053513 H 0.0 **** 0.06
17136 C 185.23116199324818 41.38219580400397 172.06480809151162 C 0.0 **** -0.24
17137 H 184.44167728201336 42.07489197105389 172.35834525690524 H 0.0 **** 0.06
17138 H 185.3616522443538 40.63083965505831 172.84346550305256 H 0.0 **** 0.06
17139 H 186.16305473679688 41.93009114571112 171.9279441704762 H 0.0 **** 0.06
17140 H 184.95620250359633 40.89330824303124 171.1307543719965 H 0.0 **** 0.06
17141 C 53.688364660417506 58.6531456649015 38.41637359785875 C 0.0 **** -0.24
17142 H 53.279755379272004 58.08363366418894 39.250668905518694 H 0.0 **** 0.06
17143 H 53.812378534713005 59.69464630491893 38.71383976523683 H 0.0 **** 0.06
17144 H 53.006282913604835 58.595960796004334 37.567762657963755 H 0.0 **** 0.06
17145 H 54.65594279183625 58.238742163574784 38.13220913094105 H 0.0 **** 0.06
17146 C 79.00432745763385 147.02269451834388 130.70320663982176 C 0.0 **** -0.24
17147 H 79.12874161245486 147.70579708511832 129.8623064335148 H 0.0 **** 0.06
17148 H 79.95617572737541 146.5373731890313 130.91974583051189 H 0.0 **** 0.06
17149 H 78.26007956057742 146.26736554630446 130.4499965376587 H 0.0 **** 0.06
17150 H 78.67254185165336 147.5814607484307 131.5780459054518 H 0.0 **** 0.06
17151 C 153.08450044041336 73.47807237689284 151.431161776536 C 0.0 **** -0.24
17152 H 153.81519151079885 72.68916039135348 151.60596896789087 H 0.0 **** 0.06
17153 H 152.64727343899915 73.78599915586727 152.3813416526566 H 0.0 **** 0.06
17154 H 152.29921926440528 73.10650022558804 150.77236457059763 H 0.0 **** 0.06
17155 H 153.57595316792953 74.3315985584565 150.96400825421176 H 0.0 **** 0.06
17156 C 136.71372566764353 73.59838052734722 4.7299776147347075 C 0.0 **** -0.24
17157 H 137.17367082155766 74.5860282021091 4.7590921854451835 H 0.0 **** 0.06
17158 H 136.1926263527061 73.46712603181226 3.7819497204631034 H 0.0 **** 0.06
17159 H 136.0036915804107 73.5044384366388 5.552339843149895 H 0.0 **** 0.06
17160 H 137.48656302421216 72.83587068685227 4.829226330956246 H 0.0 **** 0.06
17161 C 134.04938217393072 180.19291323060327 92.84322195300435 C 0.0 **** -0.24
17162 H 133.18984359779654 180.41898462659316 93.47327217002025 H 0.0 **** 0.06
17163 H 134.89278997205275 179.90106317084783 93.4685066521916 H 0.0 **** 0.06
17164 H 134.3158006738439 181.07698469975358 92.26277300573791 H 0.0 **** 0.06
17165 H 133.79866986484672 179.37608452575967 92.1657521327041 H 0.0 **** 0.06
17166 C 21.399563521920797 38.14580482591958 161.26236250851073 C 0.0 **** -0.24
17167 H 21.428900854837607 38.49518559535068 160.23094527355084 H 0.0 **** 0.06
17168 H 21.853799251258494 37.156098859878895 161.32373974594594 H 0.0 **** 0.06
17169 H 20.36318720223221 38.091253297146 161.5974780297451 H 0.0 **** 0.06
17170 H 21.95081130062104 38.839347340423316 161.89639230498005 H 0.0 **** 0.06
17171 C 162.8018279739714 126.3956255374779 23.977351074479714 C 0.0 **** -0.24
17172 H 162.16964231411347 127.00926779340803 23.334838330850403 H 0.0 **** 0.06
17173 H 163.82381550315534 126.77504529769472 23.949723358461483 H 0.0 **** 0.06
17174 H 162.78717807906844 125.36510039607249 23.62386920229585 H 0.0 **** 0.06
17175 H 162.42603298856892 126.43487126995 24.999786421413887 H 0.0 **** 0.06
17176 C 118.17907103166941 48.82608749291347 199.68310353295757 C 0.0 **** -0.24
17177 H 117.16558559170095 48.95640877098501 200.06022517716903 H 0.0 **** 0.06
17178 H 118.47099862061107 47.779659360951186 199.77885114976283 H 0.0 **** 0.06
17179 H 118.86485085518244 49.448897396160504 200.25824091604892 H 0.0 **** 0.06
17180 H 118.21522958359459 49.119625216997974 198.63342438169872 H 0.0 **** 0.06
17181 C 15.181632551172513 47.037085758319506 54.12077144788367 C 0.0 **** -0.24
17182 H 15.066798139176313 46.42485712234833 53.2250832607981 H 0.0 **** 0.06
17183 H 14.479144953981859 47.8697242384776 54.08369754032282 H 0.0 **** 0.06
17184 H 16.199930270167258 47.422852245913646 54.16754864688784 H 0.0 **** 0.06
17185 H 14.981076061651962 46.43000955708163 55.0031487506169 H 0.0 **** 0.06
17186 C 11.413372783197929 149.55530487551238 185.24545663847985 C 0.0 **** -0.24
17187 H 12.350230862872792 150.03418103502958 185.53241259420025 H 0.0 **** 0.06
17188 H 11.621302324402137 148.56351687180552 184.84273090725353 H 0.0 **** 0.06
17189 H 10.91460507385176 150.15890679323854 184.48755385854128 H 0.0 **** 0.06
17190 H 10.769223802176299 149.46472038846298 186.1207067148306 H 0.0 **** 0.06
17191 C 195.95298363243006 74.22416253388558 112.96321389854704 C 0.0 **** -0.24
17192 H 196.17579528608078 73.50951000732003 113.75592120963005 H 0.0 **** 0.06
17193 H 196.64766193640443 75.06131143920051 113.02445020125309 H 0.0 **** 0.06
17194 H 194.93212033160864 74.58835386544511 113.08104403697241 H 0.0 **** 0.06
17195 H 196.0551203581617 73.73499277268208 111.9944914556802 H 0.0 **** 0.06
17196 C 145.5756771198465 43.19421859208158 37.402177223096146 C 0.0 **** -0.24
17197 H 145.2804308991556 43.28547033252636 36.35691509083179 H 0.0 **** 0.06
17198 H 146.14515536049248 42.27560842225222 37.539023871609004 H 0.0 **** 0.06
17199 H 144.684277163636 43.16663630217086 38.02908908021732 H 0.0 **** 0.06
17200 H 146.18978204968215 44.04921672481345 37.681532610295676 H 0.0 **** 0.06
17201 C 216.51457150534108 145.7646560078523 21.86805666814996 C 0.0 **** -0.24
17202 H 215.4390508190243 145.84283750221198 21.713137260721282 H 0.0 **** 0.06
17203 H 217.03652979110507 146.1459590541067 20.989352108651275 H 0.0 **** 0.06
17204 H 216.78370347441825 144.7203576100203 22.025660511856813 H 0.0 **** 0.06
17205 H 216.79965675787858 146.34986814467788 22.742888255872884 H 0.0 **** 0.06
17206 C 167.2051121985267 190.40144920033734 182.53127396928397 C 0.0 **** -0.24
17207 H 167.77174986872524 191.19122664066535 183.02462423444342 H 0.0 **** 0.06
17208 H 166.98968135168383 189.60865605930962 183.24702441996044 H 0.0 **** 0.06
17209 H 167.78886670298436 189.99697099264526 181.7043173822522 H 0.0 **** 0.06
17210 H 166.26921559276778 190.81039279846732 182.1489758740091 H 0.0 **** 0.06
17211 C 34.43048916015698 121.85679645301201 61.08354793473438 C 0.0 **** -0.24
17212 H 34.750723408569684 121.52490836389302 60.095809880948764 H 0.0 **** 0.06
17213 H 33.45573035330483 121.42476187147645 61.31292218750099 H 0.0 **** 0.06
17214 H 34.35856091603034 122.94354612580713 61.09672305181752 H 0.0 **** 0.06
17215 H 35.156015083961904 121.5317118229787 61.828946651411826 H 0.0 **** 0.06
17216 C 130.13717333532873 133.25008238053078 95.88862214298995 C 0.0 **** -0.24
17217 H 130.8546975404783 132.74687573036675 95.24050007176022 H 0.0 **** 0.06
17218 H 129.53017092848944 132.5054371830006 96.40438639058827 H 0.0 **** 0.06
17219 H 129.4922785286297 133.89226792962626 95.28844670842095 H 0.0 **** 0.06
17220 H 130.67120367926827 133.85481437154294 96.62105707846736 H 0.0 **** 0.06
17221 C 160.0365514490296 152.92867754147733 100.94589614121917 C 0.0 **** -0.24
17222 H 159.4192461521287 153.724277957006 100.52866684420088 H 0.0 **** 0.06
17223 H 160.60335605154944 152.45130190506006 100.14560231593644 H 0.0 **** 0.06
17224 H 159.39799562624532 152.18928582463514 101.4296858618166 H 0.0 **** 0.06
17225 H 160.7256217751225 153.34865275289917 101.67886820750668 H 0.0 **** 0.06
17226 C 37.494452167093996 216.79751536802922 34.80172813974198 C 0.0 **** -0.24
17227 H 38.05311507240417 216.6276710412478 33.88153153414464 H 0.0 **** 0.06
17228 H 38.07180290415171 216.42980886185072 35.649980571458926 H 0.0 **** 0.06
17229 H 36.543407419614056 216.26793441792478 34.75240238672286 H 0.0 **** 0.06
17230 H 37.30948327220601 217.86464715109364 34.9229980666414 H 0.0 **** 0.06
17231 C 56.27850636926185 131.22664028808612 89.99411770199013 C 0.0 **** -0.24
17232 H 57.35776816165547 131.35307432627872 90.0711536078948 H 0.0 **** 0.06
17233 H 55.78932990109713 131.77433183715328 90.79942912086678 H 0.0 **** 0.06
17234 H 56.03089897473208 130.1673419928328 90.07244305652314 H 0.0 **** 0.06
17235 H 55.934798237049094 131.60907972507664 89.03331859507706 H 0.0 **** 0.06
17236 C 65.2555909658756 28.325398546048945 133.8041181648125 C 0.0 **** -0.24
17237 H 66.3131097674605 28.563611107602426 133.92105365003658 H 0.0 **** 0.06
17238 H 64.65541362081859 29.07536398166158 134.31926487733227 H 0.0 **** 0.06
17239 H 65.05599640217204 27.342100039674378 134.23172454793217 H 0.0 **** 0.06
17240 H 65.00042990835749 28.319016238421042 132.74466442403258 H 0.0 **** 0.06
17241 C 194.45256580840976 184.00505756606466 155.78545063006976 C 0.0 **** -0.24
17242 H 194.55495494775911 183.2863567002888 156.59820376449505 H 0.0 **** 0.06
17243 H 195.29971550030152 184.690963318289 155.797148408834 H 0.0 **** 0.06
17244 H 193.52707444037313 184.56791579264944 155.9131084037383 H 0.0 **** 0.06
17245 H 194.4261652645086 183.4756278861493 154.83359069090204 H 0.0 **** 0.06
17246 C 83.45596015000365 116.72845009090413 165.80206647372393 C 0.0 **** -0.24
17247 H 83.87536276313739 116.18999104217589 164.95262935106132 H 0.0 **** 0.06
17248 H 84.26501735905833 117.16141753816537 166.39197730715955 H 0.0 **** 0.06
17249 H 82.88205232048261 116.04031848120941 166.42209938787119 H 0.0 **** 0.06
17250 H 82.80374755803194 117.52393631102741 165.44132203682983 H 0.0 **** 0.06
17251 C 78.89827743010824 96.1850827576024 38.872620810767984 C 0.0 **** -0.24
17252 H 77.87314514778382 96.39161465174777 39.18144686381601 H 0.0 **** 0.06
17253 H 78.9062128834014 95.34834305815002 38.17475418630022 H 0.0 **** 0.06
17254 H 79.49705093705438 95.9350667653452 39.747753033449854 H 0.0 **** 0.06
17255 H 79.315513951056 97.06807318317709 38.387497375391135 H 0.0 **** 0.06
17256 C 171.80311090142766 70.91535170075775 13.99561000062954 C 0.0 **** -0.24
17257 H 172.59773031369318 70.20707199984349 13.76097626029346 H 0.0 **** 0.06
17258 H 172.19768042961624 71.70495084735461 14.635467969014485 H 0.0 **** 0.06
17259 H 170.99565944849252 70.39694432545144 14.513487490888593 H 0.0 **** 0.06
17260 H 171.42093346679985 71.35250350998507 13.073404040596188 H 0.0 **** 0.06
17261 C 12.091179487190459 92.72439640492688 208.02637982109306 C 0.0 **** -0.24
17262 H 11.79766470457345 93.68821579989334 207.6111721951329 H 0.0 **** 0.06
17263 H 12.989065018121025 92.36821601391874 207.5193430632973 H 0.0 **** 0.06
17264 H 11.284328860446479 92.00672786297089 207.88488059014162 H 0.0 **** 0.06
17265 H 12.296117531756991 92.83583680720308 209.09110681455505 H 0.0 **** 0.06
17266 C 106.14189364481645 213.90940799431633 83.07667091664602 C 0.0 **** -0.24
17267 H 106.3915328886557 213.2949474821196 82.21234884487829 H 0.0 **** 0.06
17268 H 106.90138843484304 213.77719004671377 83.84718127555142 H 0.0 **** 0.06
17269 H 105.17013822689948 213.60654164475335 83.46855935015249 H 0.0 **** 0.06
17270 H 106.10328255232612 214.95708751584232 82.77855191590295 H 0.0 **** 0.06
17271 C 169.95299300976598 133.2830068172832 14.230597309163073 C 0.0 **** -0.24
17272 H 171.03017453290735 133.41385373645807 14.12749936516029 H 0.0 **** 0.06
17273 H 169.4546639858585 134.24153102977465 14.08185365824832 H 0.0 **** 0.06
17274 H 169.72700323510674 132.90615571358381 15.228307693506977 H 0.0 **** 0.06
17275 H 169.60013028519134 132.57048678931636 13.484728519736578 H 0.0 **** 0.06
17276 C 194.3875023564653 87.23356456676947 12.510584869544232 C 0.0 **** -0.24
17277 H 194.613913983589 87.05731496487994 11.459310890298255 H 0.0 **** 0.06
17278 H 193.41208709902253 87.71289998358509 12.597370703734484 H 0.0 **** 0.06
17279 H 195.1505216575732 87.88096668131135 12.943595489678998 H 0.0 **** 0.06
17280 H 194.37367650117935 86.28236401628465 13.043269115335391 H 0.0 **** 0.06
17281 C 0.22571654326296198 177.2822664658782 148.20914334123677 C 0.0 **** -0.24
17282 H -0.05005216339216645 176.384176594026 148.76173029082616 H 0.0 **** 0.06
17283 H 1.2840538181798422 177.49197308493683 148.3610922367439 H 0.0 **** 0.06
17284 H -0.36734920945565364 178.12521563658203 148.5660254948097 H 0.0 **** 0.06
17285 H 0.03380000283635809 177.127727934267 147.14730906877418 H 0.0 **** 0.06
17286 C 205.6598496820124 147.83417438386266 31.84763710649628 C 0.0 **** -0.24
17287 H 204.75405308298193 148.32200965945356 31.488377601638206 H 0.0 **** 0.06
17288 H 205.39219910002188 146.94361619074448 32.41634301311018 H 0.0 **** 0.06
17289 H 206.21284228281814 148.52170825098074 32.48686905582912 H 0.0 **** 0.06
17290 H 206.2797150858886 147.54946238618828 30.997332984634653 H 0.0 **** 0.06
17291 C 58.686266492329594 20.252423152511994 65.83375796118457 C 0.0 **** -0.24
17292 H 59.66703121867744 20.22464642445067 65.35999839671717 H 0.0 **** 0.06
17293 H 58.63713485533816 21.101232384151047 66.51667605799304 H 0.0 **** 0.06
17294 H 58.52514885164473 19.328672492392855 66.38961582340033 H 0.0 **** 0.06
17295 H 57.91613446556943 20.35493823184504 65.07008759084164 H 0.0 **** 0.06
17296 C 53.690441962380106 34.836988932615114 34.58011215999248 C 0.0 **** -0.24
17297 H 53.710470614736096 35.07405664098286 35.64345306380858 H 0.0 **** 0.06
17298 H 53.256062171526324 35.67150274815785 34.029612363064345 H 0.0 **** 0.06
17299 H 53.089737372457506 33.941598053535955 34.418565524137435 H 0.0 **** 0.06
17300 H 54.707418459843296 34.66011809460727 34.22789678273648 H 0.0 **** 0.06
17301 C 14.020998789602913 161.7233360614167 94.8880467957848 C 0.0 **** -0.24
17302 H 13.960911269863288 160.85931754508886 94.22644296724847 H 0.0 **** 0.06
17303 H 15.066738405706417 161.9693119142705 95.06979017227683 H 0.0 **** 0.06
17304 H 13.532140776034424 161.49013334025233 95.83485274156483 H 0.0 **** 0.06
17305 H 13.52294568760243 162.57285014165979 94.42174747576861 H 0.0 **** 0.06
17306 C 49.7521817035223 38.59815532299483 130.94299759617968 C 0.0 **** -0.24
17307 H 50.6305046357586 39.09180239971056 131.35892250228784 H 0.0 **** 0.06
17308 H 48.932170079336856 38.651024071056 131.65980439301876 H 0.0 **** 0.06
17309 H 49.98685923721803 37.554225621011724 130.73455486377333 H 0.0 **** 0.06
17310 H 49.45967231268918 39.096321426810434 130.01761121238604 H 0.0 **** 0.06
17311 C 111.23775916000426 100.93651234593595 54.71147443083551 C 0.0 **** -0.24
17312 H 110.54048498212154 100.17397704483868 54.363513538343895 H 0.0 **** 0.06
17313 H 111.66696524194657 100.6287190603867 55.664804680021135 H 0.0 **** 0.06
17314 H 110.70834001561195 101.88081550375502 54.83949027777436 H 0.0 **** 0.06
17315 H 112.03352360821424 101.06264422015708 53.978233128303074 H 0.0 **** 0.06
17316 C 208.95748851175532 175.05879561395574 47.65383876180539 C 0.0 **** -0.24
17317 H 208.3920263433685 175.502082864437 48.47323126772835 H 0.0 **** 0.06
17318 H 208.34376573890026 175.0465863739459 46.75328314211339 H 0.0 **** 0.06
17319 H 209.23865670808658 174.0385411147013 47.916493198954015 H 0.0 **** 0.06
17320 H 209.85718693384496 175.64758776563104 47.472191561230716 H 0.0 **** 0.06
17321 C 105.1044418357925 196.35784911404016 70.89017003805485 C 0.0 **** -0.24
17322 H 105.12794946467307 197.43657866323971 70.73788059042612 H 0.0 **** 0.06
17323 H 105.07892421047995 195.8549926178296 69.92290464071435 H 0.0 **** 0.06
17324 H 104.2166942200995 196.09116406421924 71.46306477551913 H 0.0 **** 0.06
17325 H 105.99623556586016 196.0494167052346 71.43629780579421 H 0.0 **** 0.06
17326 C 102.41012289117693 61.25592260243505 132.77929675952845 C 0.0 **** -0.24
17327 H 101.84303834803949 62.1497535277058 133.04205055930453 H 0.0 **** 0.06
17328 H 103.20195025151249 61.521680191010375 132.07929928530262 H 0.0 **** 0.06
17329 H 101.74515706129101 60.526963091671234 132.31697803850034 H 0.0 **** 0.06
17330 H 102.84918530363562 60.8280966816742 133.68104912621436 H 0.0 **** 0.06
17331 C 152.3427484605486 74.98321710210696 91.39654404820374 C 0.0 **** -0.24
17332 H 152.88971450531267 74.94043924670619 92.33811896742998 H 0.0 **** 0.06
17333 H 151.91970633731756 75.97931117029428 91.26573843313975 H 0.0 **** 0.06
17334 H 151.54027427621133 74.24597487557564 91.40974299285494 H 0.0 **** 0.06
17335 H 153.02180772667919 74.76600471930614 90.57190871407619 H 0.0 **** 0.06
17336 C 216.63881873872722 127.38328842291618 64.83103565350774 C 0.0 **** -0.24
17337 H 217.54883982799527 126.87293803898864 64.51739378747172 H 0.0 **** 0.06
17338 H 216.44215876363842 127.16369643817451 65.88137006926314 H 0.0 **** 0.06
17339 H 215.80112185842745 127.03749250575503 64.22470383723748 H 0.0 **** 0.06
17340 H 216.76191665346985 128.45872052207545 64.70128648165525 H 0.0 **** 0.06
17341 C 94.9944435105263 29.834445257161946 144.05935643093392 C 0.0 **** -0.24
17342 H 95.03623615809029 30.920061285944655 143.9752116911688 H 0.0 **** 0.06
17343 H 96.00725094062231 29.431704177617036 144.0552494554492 H 0.0 **** 0.06
17344 H 94.4380193603664 29.425559882343634 143.2161873816255 H 0.0 **** 0.06
17345 H 94.4984403671228 29.56023355893342 144.9902978678099 H 0.0 **** 0.06
17346 C 19.0995329146092 180.23405502959343 95.88093867421328 C 0.0 **** -0.24
17347 H 18.371274888566745 180.18146540789502 96.69086751857789 H 0.0 **** 0.06
17348 H 19.365430186882662 181.27521457704717 95.6985254836731 H 0.0 **** 0.06
17349 H 18.667915287395147 179.8051472441072 94.97615942749867 H 0.0 **** 0.06
17350 H 19.99267616801947 179.67340202190195 96.15876863940709 H 0.0 **** 0.06
17351 C 146.93286591339444 139.796716281842 114.6665427272239 C 0.0 **** -0.24
17352 H 145.8875148139761 139.80655030412515 114.97588156269519 H 0.0 **** 0.06
17353 H 147.15295842771127 140.70179354255146 114.10015630526699 H 0.0 **** 0.06
17354 H 147.11795890457387 138.92331301504134 114.04133679902056 H 0.0 **** 0.06
17355 H 147.57295682122918 139.75441084935892 115.54819743794165 H 0.0 **** 0.06
17356 C 157.88132259556295 212.11818482021954 29.850092654061754 C 0.0 **** -0.24
17357 H 156.97629566072402 212.28981249404666 30.433063777055082 H 0.0 **** 0.06
17358 H 158.75439337748338 212.24961517636677 30.489873570082622 H 0.0 **** 0.06
17359 H 157.9227504404805 212.83141863265894 29.027334860813497 H 0.0 **** 0.06
17360 H 157.87001405208065 211.10379751491297 29.45209813364582 H 0.0 **** 0.06
17361 C 136.04963429127542 191.79280096844815 94.99060743385185 C 0.0 **** -0.24
17362 H 134.99421341550828 191.96019103552624 94.77768382554332 H 0.0 **** 0.06
17363 H 136.65467813303712 192.45278976547775 94.3686678224203 H 0.0 **** 0.06
17364 H 136.30359910071633 190.75479315271022 94.77280980166636 H 0.0 **** 0.06
17365 H 136.24555514086086 192.00113379038984 96.04169142983129 H 0.0 **** 0.06
17366 C 24.713500664545705 208.05595868049454 49.116969988584856 C 0.0 **** -0.24
17367 H 24.7155138960199 207.1308903168987 49.69125786341566 H 0.0 **** 0.06
17368 H 25.54251293948232 208.68616352533024 49.43871777097988 H 0.0 **** 0.06
17369 H 23.77236434480656 208.5822411356701 49.27947955430591 H 0.0 **** 0.06
17370 H 24.822120855986697 207.82549872291753 48.05706150090933 H 0.0 **** 0.06
17371 C 48.407828548049935 92.2185947693887 5.808776031864795 C 0.0 **** -0.24
17372 H 47.44641900938217 91.72205406754769 5.940916755177014 H 0.0 **** 0.06
17373 H 48.246130010311916 93.28075771793583 5.623904191757262 H 0.0 **** 0.06
17374 H 48.930826691100975 91.77706131112556 4.961152138475576 H 0.0 **** 0.06
17375 H 49.007519756308085 92.09444730503704 6.711085855141874 H 0.0 **** 0.06
17376 C 85.26263353598307 162.1532124486327 199.31524542063622 C 0.0 **** -0.24
17377 H 84.83290922737228 161.1566571903332 199.21542174392056 H 0.0 **** 0.06
17378 H 86.15719899573782 162.2270409430938 198.69709566266982 H 0.0 **** 0.06
17379 H 85.52415102559411 162.33316083302503 200.35727051274915 H 0.0 **** 0.06
17380 H 84.53390074104556 162.8959549565621 198.9893601171949 H 0.0 **** 0.06
17381 C 99.62026357941637 37.7621698071145 162.77320353675788 C 0.0 **** -0.24
17382 H 99.64282391098457 37.16360541561346 161.86297454149712 H 0.0 **** 0.06
17383 H 100.11228605593523 37.21676864566507 163.57903329920128 H 0.0 **** 0.06
17384 H 98.58596891101628 37.96518476124828 163.04998792088077 H 0.0 **** 0.06
17385 H 100.14207391295973 38.70382901141306 162.60186451645086 H 0.0 **** 0.06
17386 C 186.31421310639752 192.90294541985094 66.7151489703721 C 0.0 **** -0.24
17387 H 186.38198331246113 193.63695661684727 67.5169774232631 H 0.0 **** 0.06
17388 H 186.47991303949777 191.90453616536053 67.12091324094229 H 0.0 **** 0.06
17389 H 187.07052775580362 193.11872273028936 65.96004073230228 H 0.0 **** 0.06
17390 H 185.324615542085 192.95058098599833 66.26166728913613 H 0.0 **** 0.06
17391 C 183.7388932196967 164.22015743950317 115.84064988742576 C 0.0 **** -0.24
17392 H 183.33488251189186 165.03329941445259 116.4449069831794 H 0.0 **** 0.06
17393 H 184.4849127915034 164.61646157602314 115.15114645594612 H 0.0 **** 0.06
17394 H 182.93230085961287 163.75316070110756 115.27523326914262 H 0.0 **** 0.06
17395 H 184.20235970390365 163.4795874862999 116.4917820430607 H 0.0 **** 0.06
17396 C 27.094868287821555 74.74435695117224 87.27936433394314 C 0.0 **** -0.24
17397 H 26.360647274507357 75.42122135592236 86.8423469204734 H 0.0 **** 0.06
17398 H 26.875130163622714 73.72221352782479 86.96979668550466 H 0.0 **** 0.06
17399 H 27.050533979889508 74.8135177195628 88.36582297449183 H 0.0 **** 0.06
17400 H 28.092172083807554 75.02158344151842 86.93781968304631 H 0.0 **** 0.06
17401 C 55.59918128680073 206.89456615835593 140.18310752975214 C 0.0 **** -0.24
17402 H 56.62080997666868 207.2629598523688 140.28318283050157 H 0.0 **** 0.06
17403 H 55.48544188775537 205.98047945978792 140.76471476017593 H 0.0 **** 0.06
17404 H 55.390167599197355 206.6857689749553 139.13283080926772 H 0.0 **** 0.06
17405 H 54.90387454459983 207.64878206298965 140.54921408530396 H 0.0 **** 0.06
17406 C 119.57410408056425 82.21472961052183 183.47011452534542 C 0.0 **** -0.24
17407 H 119.51924901006241 81.15553839706973 183.2194074746705 H 0.0 **** 0.06
17408 H 120.58422758077329 82.57901756395955 183.2879884532207 H 0.0 **** 0.06
17409 H 119.32074754087957 82.35195461479691 184.5214892938552 H 0.0 **** 0.06
17410 H 118.8694433026394 82.77056004358053 182.85174420703711 H 0.0 **** 0.06
17411 C 99.21313383802107 206.71944965849747 185.64887729691668 C 0.0 **** -0.24
17412 H 99.65310927789079 207.0112709550151 184.6958589020877 H 0.0 **** 0.06
17413 H 99.56061495558873 205.72169371838612 185.91855879160642 H 0.0 **** 0.06
17414 H 98.12715792031992 206.7150822238353 185.56131389032828 H 0.0 **** 0.06
17415 H 99.5133802571437 207.42973655993688 186.4196468817687 H 0.0 **** 0.06
17416 C 157.55982663583268 37.06435734036786 102.91741138405756 C 0.0 **** -0.24
17417 H 156.7322415186773 36.70384442416179 102.30660908779261 H 0.0 **** 0.06
17418 H 157.4153178702946 38.12173270980607 103.13761281407612 H 0.0 **** 0.06
17419 H 158.4965524755401 36.93111715714434 102.37455512136471 H 0.0 **** 0.06
17420 H 157.5969595794267 36.500495147980274 103.8491869468253 H 0.0 **** 0.06
17421 C 26.97661051142822 23.03604674042282 155.18415875965945 C 0.0 **** -0.24
17422 H 25.998584842975518 23.495703309518433 155.3298837853938 H 0.0 **** 0.06
17423 H 27.756510579967454 23.758237265258856 155.42650535634152 H 0.0 **** 0.06
17424 H 27.07962805323065 22.724153245678053 154.14507841541706 H 0.0 **** 0.06
17425 H 27.069582071868922 22.166742803764464 155.8352832443802 H 0.0 **** 0.06
17426 C 81.57804251353689 182.2976023828162 80.79933567661885 C 0.0 **** -0.24
17427 H 80.61193336740904 181.80436952308844 80.69680478123433 H 0.0 **** 0.06
17428 H 81.81865324093819 182.40698641100548 81.8568283478408 H 0.0 **** 0.06
17429 H 81.53438762735787 183.28139236556314 80.33226217695022 H 0.0 **** 0.06
17430 H 82.34579748628475 181.69776008424662 80.31163429408383 H 0.0 **** 0.06
17431 C 190.0340657134252 127.59933556142433 11.708586396422533 C 0.0 **** -0.24
17432 H 190.97902691460993 127.83196756869147 11.217790296673456 H 0.0 **** 0.06
17433 H 189.8564720557929 128.31429738066555 12.512605826742373 H 0.0 **** 0.06
17434 H 190.07809828640026 126.59123578086594 12.122123723042762 H 0.0 **** 0.06
17435 H 189.22343670533164 127.65892066884264 10.982572376467516 H 0.0 **** 0.06
17436 C 199.45563656257104 51.226076145244974 95.38807405200275 C 0.0 **** -0.24
17437 H 198.6971552931768 50.99638659925586 94.639415237497 H 0.0 **** 0.06
17438 H 199.0135164682234 51.16287927093276 96.38296004223831 H 0.0 **** 0.06
17439 H 199.83612471046672 52.23437166552526 95.22289820594308 H 0.0 **** 0.06
17440 H 200.27466204930812 50.511168907870115 95.30777439593781 H 0.0 **** 0.06
17441 C 208.64678418036482 77.82440454852309 129.1242085947697 C 0.0 **** -0.24
17442 H 208.49385854088996 77.95144481004968 128.05245365132998 H 0.0 **** 0.06
17443 H 209.38163592539757 77.03819631320647 129.2957972052069 H 0.0 **** 0.06
17444 H 207.7030381231353 77.54998071100113 129.59556522641566 H 0.0 **** 0.06
17445 H 209.0081932319103 78.75913575798313 129.55228825034402 H 0.0 **** 0.06
17446 C 74.9658565147585 150.41719702457135 149.01214580210848 C 0.0 **** -0.24
17447 H 75.31261416230161 150.2104136705156 150.0242727225733 H 0.0 **** 0.06
17448 H 73.87725142685765 150.35871896164502 148.98274450153946 H 0.0 **** 0.06
17449 H 75.38823527354505 149.68394663359584 148.32544559336026 H 0.0 **** 0.06
17450 H 75.28465380569556 151.4169531543572 148.7160898671682 H 0.0 **** 0.06
17451 C 147.1025523197955 25.106570802018666 85.7957090780033 C 0.0 **** -0.24
17452 H 146.67388106254487 24.112603489125775 85.92339646818185 H 0.0 **** 0.06
17453 H 148.05822239929233 25.025422710671705 85.27779612831613 H 0.0 **** 0.06
17454 H 147.25521350036172 25.56477873652028 86.77317017663036 H 0.0 **** 0.06
17455 H 146.42189966179018 25.72247096593665 85.20847567204088 H 0.0 **** 0.06
17456 C 166.8869489019939 73.72854550393 53.333262284751015 C 0.0 **** -0.24
17457 H 165.8462236343618 73.88338621229802 53.04701689251678 H 0.0 **** 0.06
17458 H 167.0756857168262 72.66128381703437 53.45001863977984 H 0.0 **** 0.06
17459 H 167.08427397415278 74.23941530188166 54.27548518589103 H 0.0 **** 0.06
17460 H 167.54041121256577 74.12990560021227 52.558402151977674 H 0.0 **** 0.06
17461 C 117.72011674620482 121.98922877432595 29.839695069864746 C 0.0 **** -0.24
17462 H 117.47062777087503 122.1601556407699 28.7929356045114 H 0.0 **** 0.06
17463 H 117.21770368018984 122.73258847262203 30.459306739043257 H 0.0 **** 0.06
17464 H 118.79889566454348 122.07292049691277 29.974204885258303 H 0.0 **** 0.06
17465 H 117.39380050492973 120.99194954706162 30.132776919510434 H 0.0 **** 0.06
17466 C 171.5128915327936 206.304180883103 94.68367576111666 C 0.0 **** -0.24
17467 H 170.88160398400643 206.45695851461926 93.80873510565817 H 0.0 **** 0.06
17468 H 170.9215175341522 205.85866992871271 95.48365758661299 H 0.0 **** 0.06
17469 H 171.91109619422772 207.26213413744745 95.01669937973077 H 0.0 **** 0.06
17470 H 172.33570716891802 205.63714870171776 94.42575980392655 H 0.0 **** 0.06
17471 C 165.37773720325447 89.61572310066948 143.89406168192727 C 0.0 **** -0.24
17472 H 164.45554625067797 89.9877103238871 144.34000728647754 H 0.0 **** 0.06
17473 H 165.580559170797 88.61040577662145 144.26435140345416 H 0.0 **** 0.06
17474 H 166.20306836938 90.27543183099108 144.16320663596764 H 0.0 **** 0.06
17475 H 165.2718005625977 89.58866552226432 142.80992172836204 H 0.0 **** 0.06
17476 C 128.1039412054214 149.64417447382124 114.93423306206851 C 0.0 **** -0.24
17477 H 128.56284726000655 149.71464148825197 113.94788942254694 H 0.0 **** 0.06
17478 H 127.44705645586454 148.7747324365119 114.9682347438909 H 0.0 **** 0.06
17479 H 127.52292276438077 150.5464229231443 115.12945465765686 H 0.0 **** 0.06
17480 H 128.88163399490833 149.54288158665037 115.69074003521577 H 0.0 **** 0.06
17481 C 185.5165424551747 123.90036810661384 128.35364779725677 C 0.0 **** -0.24
17482 H 185.43553982890393 124.9372808293757 128.67971637290384 H 0.0 **** 0.06
17483 H 184.8043800346578 123.2896882089157 128.90842692657594 H 0.0 **** 0.06
17484 H 186.52806851395624 123.53905196621814 128.53948863941702 H 0.0 **** 0.06
17485 H 185.29759780384362 123.83726222990701 127.28757602192495 H 0.0 **** 0.06
17486 C 87.4474435135034 212.66224661910712 101.44283216449502 C 0.0 **** -0.24
17487 H 87.38365152779392 212.9617280509818 102.4884293972005 H 0.0 **** 0.06
17488 H 86.47542351489409 212.29788412398497 101.1086671595235 H 0.0 **** 0.06
17489 H 88.18949956888918 211.87125399180394 101.33587140054287 H 0.0 **** 0.06
17490 H 87.74121324773716 213.52003301613308 100.83683051606856 H 0.0 **** 0.06
17491 C 29.482967522007968 125.12695092442458 143.94215429948576 C 0.0 **** -0.24
17492 H 29.08229603747141 125.98295517076987 144.48512135947857 H 0.0 **** 0.06
17493 H 30.3862375172277 125.42437606702687 143.4105983600632 H 0.0 **** 0.06
17494 H 28.74068453644584 124.77036095999195 143.22743357227176 H 0.0 **** 0.06
17495 H 29.72105934973162 124.32900764243128 144.64595892279743 H 0.0 **** 0.06
17496 C 152.61791168458302 87.70739924838925 164.7880131747722 C 0.0 **** -0.24
17497 H 153.64739518959192 87.47564273087995 164.5152829725036 H 0.0 **** 0.06
17498 H 152.48231683306727 88.78870212059003 164.8096758371705 H 0.0 **** 0.06
17499 H 152.4008232939612 87.29284392272395 165.77210546603982 H 0.0 **** 0.06
17500 H 151.94067825016907 87.27120083111701 164.05290163691453 H 0.0 **** 0.06
17501 C 208.21384497334367 134.03678510018563 44.075935341665485 C 0.0 **** -0.24
17502 H 209.09565315721252 134.5268171817077 44.488454455145416 H 0.0 **** 0.06
17503 H 207.31533357693698 134.51770952216594 44.46515268635399 H 0.0 **** 0.06
17504 H 208.21587629700616 132.98546785642264 44.36126329212365 H 0.0 **** 0.06
17505 H 208.22834518981557 134.1193673375605 42.98905951697567 H 0.0 **** 0.06
17506 C 48.06333945068042 39.01613938106419 70.8191213081363 C 0.0 **** -0.24
17507 H 47.59061785184679 38.727812962614905 69.87962233387692 H 0.0 **** 0.06
17508 H 48.657442020177484 38.18394982057666 71.19661807272611 H 0.0 **** 0.06
17509 H 47.295074969088205 39.275635445052444 71.5468840445994 H 0.0 **** 0.06
17510 H 48.70923255712091 39.87682164540024 70.65005846482264 H 0.0 **** 0.06
17511 C 210.26755915497552 80.21471113029072 90.65248046692248 C 0.0 **** -0.24
17512 H 209.7962923876699 79.74151575073729 91.51401857172907 H 0.0 **** 0.06
17513 H 211.33775405191705 80.31422499552629 90.83305179677133 H 0.0 **** 0.06
17514 H 209.83087137444514 81.20092318731598 90.49600781005124 H 0.0 **** 0.06
17515 H 210.1030855811885 79.60045176568788 89.76699866644604 H 0.0 **** 0.06
17516 C 65.94008750294488 149.0529608291772 166.13783652296064 C 0.0 **** -0.24
17517 H 65.16569765045493 149.63802233376356 165.64299866315812 H 0.0 **** 0.06
17518 H 65.524055106224 148.5784992672625 167.0269818537264 H 0.0 **** 0.06
17519 H 66.76182617269659 149.708615995086 166.42694378540494 H 0.0 **** 0.06
17520 H 66.30859391499543 148.28667830525166 165.45582460600792 H 0.0 **** 0.06
17521 C 84.97200994991867 61.41452434833215 26.929800280005537 C 0.0 **** -0.24
17522 H 84.75681807005226 62.27312770294121 27.566223785547294 H 0.0 **** 0.06
17523 H 84.44524063306223 60.53887790085527 27.30947320166794 H 0.0 **** 0.06
17524 H 86.04501374824262 61.22120925526421 26.931307109205193 H 0.0 **** 0.06
17525 H 84.6430942435805 61.62528073809359 25.912760792169195 H 0.0 **** 0.06
17526 C 145.72184063834368 29.848911007754708 208.70320263331354 C 0.0 **** -0.24
17527 H 146.1978667865974 28.932389135466124 209.05387616465842 H 0.0 **** 0.06
17528 H 145.55057300640465 30.515531842839763 209.5482784838659 H 0.0 **** 0.06
17529 H 144.7685851718465 29.604829661548166 208.23297878196487 H 0.0 **** 0.06
17530 H 146.36947350262756 30.339393923415926 207.97759165471166 H 0.0 **** 0.06
17531 C 214.877278695484 168.96013346836344 67.0841470208681 C 0.0 **** -0.24
17532 H 214.88944180602536 167.95433751715535 67.50300819709152 H 0.0 **** 0.06
17533 H 215.82600412300567 169.453796773426 67.29776528631812 H 0.0 **** 0.06
17534 H 214.0619203745857 169.52969841325432 67.53123955686904 H 0.0 **** 0.06
17535 H 214.73242190113055 168.90298299437913 66.00525848556141 H 0.0 **** 0.06
17536 C 106.88004971548558 206.17206191683667 125.32952859758787 C 0.0 **** -0.24
17537 H 107.66373865575964 206.41092962432572 126.04846392133449 H 0.0 **** 0.06
17538 H 106.77434617996941 205.08910624472256 125.25422297039519 H 0.0 **** 0.06
17539 H 107.14505951720601 206.58008019899117 124.35527915044305 H 0.0 **** 0.06
17540 H 105.93738896959563 206.60651504164025 125.66195803851626 H 0.0 **** 0.06
17541 C 8.079962237589598 193.0293063415291 173.9439456449951 C 0.0 **** -0.24
17542 H 9.027044430889248 193.32006127573783 173.48940739124225 H 0.0 **** 0.06
17543 H 8.079067911568927 191.95504043130336 174.1258084349023 H 0.0 **** 0.06
17544 H 7.261277452903826 193.2852952127078 173.27109345867035 H 0.0 **** 0.06
17545 H 7.952631727777572 193.55869028669355 174.88789093271367 H 0.0 **** 0.06
17546 C 184.63641524474343 13.053919175437613 187.74300094187944 C 0.0 **** -0.24
17547 H 184.3160706018774 13.997911987596467 187.30213019305367 H 0.0 **** 0.06
17548 H 184.81770476290313 13.193385293577137 188.80870467562428 H 0.0 **** 0.06
17549 H 185.55358584375836 12.720555085173856 187.25851813045185 H 0.0 **** 0.06
17550 H 183.857258016245 12.304163204379904 187.60070140932172 H 0.0 **** 0.06
17551 C 127.08656261816651 64.08783684982126 4.803995852759101 C 0.0 **** -0.24
17552 H 127.5294624721875 65.04896999695728 5.0644261191644375 H 0.0 **** 0.06
17553 H 126.07517161771119 64.03305242228106 5.205947388116414 H 0.0 **** 0.06
17554 H 127.68926213865302 63.28347827202538 5.225596020003167 H 0.0 **** 0.06
17555 H 127.05309988264753 63.985474566761525 3.7188712692251613 H 0.0 **** 0.06
17556 C 201.7295306372762 216.28534485937473 191.5466577854164 C 0.0 **** -0.24
17557 H 202.4821962562013 215.53649175525558 191.79403328464363 H 0.0 **** 0.06
17558 H 201.16198539798842 215.95625854740047 190.67523666693913 H 0.0 **** 0.06
17559 H 202.21981763857787 217.2331769495046 191.32410189299463 H 0.0 **** 0.06
17560 H 201.0552837732154 216.41482502256918 192.39274949189576 H 0.0 **** 0.06
17561 C 96.2492606088552 191.93004952267287 103.66403281031951 C 0.0 **** -0.24
17562 H 97.16402492007381 192.1178336813628 104.22634722761383 H 0.0 **** 0.06
17563 H 95.99770286149084 190.87093076766652 103.72349966481018 H 0.0 **** 0.06
17564 H 96.4011532444531 192.20879597514826 102.62065598422079 H 0.0 **** 0.06
17565 H 95.43626034242595 192.52120008602913 104.08403839763547 H 0.0 **** 0.06
17566 C 128.637596733299 75.58369098848044 187.8344522054045 C 0.0 **** -0.24
17567 H 129.67168491095373 75.71159253717343 188.1539001123687 H 0.0 **** 0.06
17568 H 128.51451387158932 75.99079750158569 186.83121593195983 H 0.0 **** 0.06
17569 H 127.97790713606854 76.11095065042758 188.52370761787785 H 0.0 **** 0.06
17570 H 128.38655965797312 74.52346585509429 187.83030814247257 H 0.0 **** 0.06
17571 C 179.55830702150382 152.9634227413183 183.42102843656562 C 0.0 **** -0.24
17572 H 178.562859762826 152.51803206849036 183.4268646237906 H 0.0 **** 0.06
17573 H 179.73322962325278 153.4743843017008 184.36754071581106 H 0.0 **** 0.06
17574 H 179.63001092430508 153.67889850261872 182.6021706265414 H 0.0 **** 0.06
17575 H 180.3049424517163 152.18049785865554 183.28670306478585 H 0.0 **** 0.06
17576 C 98.08626951466725 165.66083062932404 163.24885474634277 C 0.0 **** -0.24
17577 H 97.02437450416907 165.89325840889 163.17448785255567 H 0.0 **** 0.06
17578 H 98.22942562595044 164.58397081662912 163.15350052729502 H 0.0 **** 0.06
17579 H 98.46415368942148 165.9936041951762 164.21631764744637 H 0.0 **** 0.06
17580 H 98.62693485638748 166.17157421624267 162.45257144323153 H 0.0 **** 0.06
17581 C 72.81811406935708 111.4398286000182 102.07322010450362 C 0.0 **** -0.24
17582 H 72.62220426948392 112.05935254775726 101.1981757847095 H 0.0 **** 0.06
17583 H 72.37193283516672 110.45587946846787 101.92962503072984 H 0.0 **** 0.06
17584 H 72.38372002548567 111.91024898212125 102.9554262133238 H 0.0 **** 0.06
17585 H 73.89390947825467 111.33490956224502 102.21082227162505 H 0.0 **** 0.06
17586 C 122.63835359120895 177.28602616516974 166.32704175720124 C 0.0 **** -0.24
17587 H 122.85417290902086 176.50475018861965 165.59834428572083 H 0.0 **** 0.06
17588 H 123.49536773955481 177.95343264517072 166.4085368507325 H 0.0 **** 0.06
17589 H 122.43677142436184 176.8309371978366 167.29749722892234 H 0.0 **** 0.06
17590 H 121.7651592355071 177.85196406030974 166.00347098958974 H 0.0 **** 0.06
17591 C 67.12347175546458 57.841208627048275 50.58530961423003 C 0.0 **** -0.24
17592 H 67.91040914213067 58.48887429638779 50.97031461120426 H 0.0 **** 0.06
17593 H 67.38046066645717 57.51849095611482 49.575533812105874 H 0.0 **** 0.06
17594 H 66.18100919291317 58.38863191109874 50.56314640243177 H 0.0 **** 0.06
17595 H 67.02190480989634 56.96972220841786 51.23114526989556 H 0.0 **** 0.06
17596 C 157.31950840576934 22.52920184929198 206.58014252957713 C 0.0 **** -0.24
17597 H 156.7961936039692 22.974394292912336 207.42608309231983 H 0.0 **** 0.06
17598 H 158.39348674113137 22.547141538357096 206.76849554513262 H 0.0 **** 0.06
17599 H 157.09989924292438 23.096626386769373 205.6764211530831 H 0.0 **** 0.06
17600 H 156.99038864861825 21.49789878148681 206.45195786424355 H 0.0 **** 0.06
17601 C 103.23980057498581 111.04958563266517 147.29000893501825 C 0.0 **** -0.24
17602 H 102.48978070336058 111.05340708782559 148.08069074134897 H 0.0 **** 0.06
17603 H 102.83129986228063 110.5616199710034 146.404583708377 H 0.0 **** 0.06
17604 H 104.1221824810567 110.50789288805537 147.62939111456757 H 0.0 **** 0.06
17605 H 103.51514708160632 112.07569752554885 147.04591505013673 H 0.0 **** 0.06
17606 C 122.27005232892496 141.09988559447612 64.36150965632486 C 0.0 **** -0.24
17607 H 123.21896751140842 141.05375993357268 63.82819687974188 H 0.0 **** 0.06
17608 H 121.6830596085082 141.93825821529504 63.986476283004066 H 0.0 **** 0.06
17609 H 122.45876759518747 141.2356495410532 65.42618558208684 H 0.0 **** 0.06
17610 H 121.72067898462667 140.17138355687308 64.20558007685865 H 0.0 **** 0.06
17611 C 98.57847784729829 1.7925479932983137 213.7177072671489 C 0.0 **** -0.24
17612 H 99.3073981707701 2.3806460734786867 214.27432376726085 H 0.0 **** 0.06
17613 H 98.95366890311927 1.6078358217924347 212.71129223538816 H 0.0 **** 0.06
17614 H 97.63797385439678 2.3402132707992394 213.661332517742 H 0.0 **** 0.06
17615 H 98.41561360899972 0.8411684188120034 214.22541023538696 H 0.0 **** 0.06
17616 C 50.74427841346734 62.260934172537816 209.33495334424885 C 0.0 **** -0.24
17617 H 50.50909468668097 63.266882231269165 209.68246198126388 H 0.0 **** 0.06
17618 H 51.63563611427459 62.29303099505188 208.70806070007023 H 0.0 **** 0.06
17619 H 49.90699092213329 61.87002094732907 208.75757857081058 H 0.0 **** 0.06
17620 H 50.926859934033175 61.61449639699049 210.19324951909456 H 0.0 **** 0.06
17621 C 5.79887305065958 61.86767271245452 103.69708067985538 C 0.0 **** -0.24
17622 H 6.749350768036962 61.81158980626117 103.16729776378567 H 0.0 **** 0.06
17623 H 5.2084677845520275 62.692452138705846 103.299073592 H 0.0 **** 0.06
17624 H 5.984294645542576 62.03145562653509 104.7581914704564 H 0.0 **** 0.06
17625 H 5.2542800670497485 60.93293745405873 103.56344454431333 H 0.0 **** 0.06
17626 C 132.260933873527 100.2714593417864 82.57476770501853 C 0.0 **** -0.24
17627 H 132.29789075643208 101.26358922137547 82.12475478394748 H 0.0 **** 0.06
17628 H 133.1666628766847 99.72237447195488 82.31592426255423 H 0.0 **** 0.06
17629 H 131.38955368191745 99.73492683434858 82.20007909078646 H 0.0 **** 0.06
17630 H 132.19124190895195 100.36612574174211 83.65839099689708 H 0.0 **** 0.06
17631 C 22.085613918361517 74.23485562934006 64.75335663193181 C 0.0 **** -0.24
17632 H 21.766594063917907 73.258491921031 64.387261842453 H 0.0 **** 0.06
17633 H 21.604474900369866 74.43733152293457 65.71076297813721 H 0.0 **** 0.06
17634 H 21.80370806825529 75.00251615354354 64.0342707470214 H 0.0 **** 0.06
17635 H 23.16767988820324 74.23732250912151 64.88282199462691 H 0.0 **** 0.06
17636 C 114.0036608388695 208.22964411619165 146.18876868377265 C 0.0 **** -0.24
17637 H 113.62840524087811 208.7564814119683 147.0647109164767 H 0.0 **** 0.06
17638 H 114.17384733653942 207.18242289110248 146.43987306114968 H 0.0 **** 0.06
17639 H 114.94107242066308 208.68291746039796 145.8652815110255 H 0.0 **** 0.06
17640 H 113.27176693570532 208.29659538821664 145.38354387930474 H 0.0 **** 0.06
17641 C 142.80665536904905 132.02567019788847 126.8415029958119 C 0.0 **** -0.24
17642 H 142.67138695541786 132.61354292753452 125.9338564566289 H 0.0 **** 0.06
17643 H 142.35829405190162 132.5514832980952 127.684588906597 H 0.0 **** 0.06
17644 H 143.8714011401001 131.88304546811594 127.02610463761901 H 0.0 **** 0.06
17645 H 142.32592591292018 131.05480797059346 126.72056141632272 H 0.0 **** 0.06
17646 C 104.00229747731976 96.66696692497278 4.254449498578893 C 0.0 **** -0.24
17647 H 104.23359474456561 95.72581666913875 4.752678257742929 H 0.0 **** 0.06
17648 H 104.928949520233 97.17210785657166 3.9837841139311365 H 0.0 **** 0.06
17649 H 103.42508578455295 97.30214488030656 4.927149863680938 H 0.0 **** 0.06
17650 H 103.4196687471927 96.46767865014341 3.354825638478559 H 0.0 **** 0.06
17651 C 89.59060651199614 71.67516216547676 169.0445201935334 C 0.0 **** -0.24
17652 H 88.73876510544683 71.4669100118773 168.39892639233472 H 0.0 **** 0.06
17653 H 90.32011765909239 70.87054131539696 168.9547655112478 H 0.0 **** 0.06
17654 H 89.25389724635305 71.74625173472475 170.0790221456948 H 0.0 **** 0.06
17655 H 90.05053775706982 72.61810478698419 168.7470582346993 H 0.0 **** 0.06
17656 C 142.82144292096842 117.04503564034898 39.754012953586184 C 0.0 **** -0.24
17657 H 142.09501861609294 117.5944364191078 40.35249239651927 H 0.0 **** 0.06
17658 H 143.79623315932253 117.08374513490496 40.24073742553185 H 0.0 **** 0.06
17659 H 142.89123312296147 117.49660663490498 38.76408613200593 H 0.0 **** 0.06
17660 H 142.50275634093344 116.00772547381827 39.65904667967905 H 0.0 **** 0.06
17661 C 211.7441554676 161.8523338776171 126.14700316709782 C 0.0 **** -0.24
17662 H 211.6428464439477 162.6492685200919 126.88481128685616 H 0.0 **** 0.06
17663 H 211.5831109311811 162.26006473391573 125.14821121130687 H 0.0 **** 0.06
17664 H 211.00532112798862 161.07663919639003 126.34674977204823 H 0.0 **** 0.06
17665 H 212.74555970076065 161.42700382758383 126.20907601114503 H 0.0 **** 0.06
17666 C 9.023875812541931 89.60943789717014 2.07930884277021 C 0.0 **** -0.24
17667 H 8.19310158584969 89.56765725549876 2.7835955005604944 H 0.0 **** 0.06
17668 H 9.279839605357452 90.65058782013405 1.88046838569813 H 0.0 **** 0.06
17669 H 8.73416092335411 89.12236669774775 1.1477783385839615 H 0.0 **** 0.06
17670 H 9.886729349743376 89.09721109374944 2.5036042490629953 H 0.0 **** 0.06
17671 C 177.4705776402343 95.30525595935576 18.00870722731503 C 0.0 **** -0.24
17672 H 176.93899793587974 95.0007376755399 17.107611363659572 H 0.0 **** 0.06
17673 H 178.23731882093935 96.03590681553332 17.748671756327127 H 0.0 **** 0.06
17674 H 177.94032781670956 94.43339661784366 18.465540042105147 H 0.0 **** 0.06
17675 H 176.76836845379404 95.74976368069746 18.713464822776928 H 0.0 **** 0.06
17676 C 28.52623919252727 78.66249862607818 50.31806590495614 C 0.0 **** -0.24
17677 H 28.11855253914402 79.66792041400198 50.429850441794926 H 0.0 **** 0.06
17678 H 29.61210771621427 78.69933931878079 50.41243470713319 H 0.0 **** 0.06
17679 H 28.26045386707932 78.27019695434704 49.33745453313128 H 0.0 **** 0.06
17680 H 28.115885318976154 78.01550817467334 51.09245544941645 H 0.0 **** 0.06
17681 C 125.28894773095966 58.107724427213654 182.55665714016203 C 0.0 **** -0.24
17682 H 125.1558487861359 58.50646945076414 183.56286051504873 H 0.0 **** 0.06
17683 H 126.05632077307665 57.333919051726156 182.57138763686783 H 0.0 **** 0.06
17684 H 125.59350698229512 58.91047358725737 181.88589371844785 H 0.0 **** 0.06
17685 H 124.34762628657872 57.68069494483416 182.2097077083285 H 0.0 **** 0.06
17686 C 4.909411423619552 48.2088750203918 89.86181151824844 C 0.0 **** -0.24
17687 H 4.445070559501531 47.30139739461238 90.24746039099988 H 0.0 **** 0.06
17688 H 5.001728433950483 48.136738047284126 88.77746287149871 H 0.0 **** 0.06
17689 H 5.898946746135735 48.32755314445491 90.3040213067924 H 0.0 **** 0.06
17690 H 4.291447350604855 49.07016247583552 90.11700844691241 H 0.0 **** 0.06
17691 C 10.87401838493156 193.42006413605023 177.93733136310806 C 0.0 **** -0.24
17692 H 11.661127477806929 194.02603002747333 177.48728050933425 H 0.0 **** 0.06
17693 H 10.67150865787437 192.55912762819045 177.29984623768968 H 0.0 **** 0.06
17694 H 9.969262967130362 194.01760187890477 178.03952423055546 H 0.0 **** 0.06
17695 H 11.197130892067833 193.07761508625254 178.919633794679 H 0.0 **** 0.06
17696 C 83.68091858823487 212.14506161520845 176.89792571159046 C 0.0 **** -0.24
17697 H 84.41115576345351 211.66821066570603 176.2439838338667 H 0.0 **** 0.06
17698 H 82.77456834401642 212.36134546349226 176.3330986101839 H 0.0 **** 0.06
17699 H 84.09678591476205 213.0734614282722 177.28995925388267 H 0.0 **** 0.06
17700 H 83.44378000116467 211.47599968071225 177.7254657801904 H 0.0 **** 0.06
17701 C 169.2717359672668 159.64895204737437 174.72231105116998 C 0.0 **** -0.24
17702 H 169.96908880151034 160.44417974439324 174.98692035062663 H 0.0 **** 0.06
17703 H 169.44113283381154 159.346814572428 173.68885530321336 H 0.0 **** 0.06
17704 H 168.24949552720778 160.0107457316032 174.8327463209215 H 0.0 **** 0.06
17705 H 169.4277565826152 158.79485541580402 175.38103758176828 H 0.0 **** 0.06
17706 C 95.38195903232491 33.6250564368878 58.502332188142034 C 0.0 **** -0.24
17707 H 95.26184943849262 33.643175090241016 59.585746487459645 H 0.0 **** 0.06
17708 H 96.14673410817147 32.896516620464354 58.23387558190872 H 0.0 **** 0.06
17709 H 95.68286042466445 34.61333133664084 58.153899669168595 H 0.0 **** 0.06
17710 H 94.43578141472233 33.34849188916024 58.03678937616816 H 0.0 **** 0.06
17711 C 153.82264995275864 44.12052506655721 205.97620886663154 C 0.0 **** -0.24
17712 H 153.64991231759745 43.68465250685637 204.99284833455678 H 0.0 **** 0.06
17713 H 153.85888880924358 45.206777499428085 205.8898633724028 H 0.0 **** 0.06
17714 H 154.76879130136427 43.75550801750967 206.37518910500413 H 0.0 **** 0.06
17715 H 153.0108799208448 43.83635647296143 206.64671597523963 H 0.0 **** 0.06
17716 C 86.02322885265973 94.29132840653604 76.32393077487488 C 0.0 **** -0.24
17717 H 85.9243604446943 94.08588571651079 77.38982076717868 H 0.0 **** 0.06
17718 H 86.75628264554383 95.08466328600467 76.17345464966336 H 0.0 **** 0.06
17719 H 85.05958636579028 94.60665004615869 75.9238313398041 H 0.0 **** 0.06
17720 H 86.35317807955461 93.38897241617649 75.80876447368 H 0.0 **** 0.06
17721 C 136.30671284383374 32.993730965317226 152.75591516016112 C 0.0 **** -0.24
17722 H 135.42836852420868 33.631425322458824 152.85717376320503 H 0.0 **** 0.06
17723 H 136.0303460030367 32.07430864775712 152.24082284817416 H 0.0 **** 0.06
17724 H 136.69711832471182 32.754264421328614 153.7450281322309 H 0.0 **** 0.06
17725 H 137.06999635086208 33.51787948839332 152.18111454778398 H 0.0 **** 0.06
17726 C 199.65251798946554 209.64659341653567 50.165617701220356 C 0.0 **** -0.24
17727 H 200.1451349414063 208.73756409884908 49.819657609684384 H 0.0 **** 0.06
17728 H 199.69809391596803 209.69216300769148 51.25330118863974 H 0.0 **** 0.06
17729 H 198.6108997426171 209.63828023305314 49.84408005035306 H 0.0 **** 0.06
17730 H 200.15691723363412 210.5154014618765 49.743367644997875 H 0.0 **** 0.06
17731 C 208.27693364367292 10.45126173095467 79.05103441507363 C 0.0 **** -0.24
17732 H 209.26268824960067 10.05103917833624 79.28777034195322 H 0.0 **** 0.06
17733 H 207.52331655182468 9.681360362218612 79.21603227781823 H 0.0 **** 0.06
17734 H 208.2534033064207 10.764970518716993 78.00693754535122 H 0.0 **** 0.06
17735 H 208.06875762675068 11.307997594652392 79.69255413861354 H 0.0 **** 0.06
17736 C 71.50373618147336 184.77692746431455 118.20317121611559 C 0.0 **** -0.24
17737 H 71.79233008562494 184.8786210680177 119.24850851887898 H 0.0 **** 0.06
17738 H 71.25457857153015 185.75818157751428 117.79752357234189 H 0.0 **** 0.06
17739 H 70.63499555532798 184.1220412605408 118.12797852674875 H 0.0 **** 0.06
17740 H 72.33138010526733 184.34875063805316 117.63819487343726 H 0.0 **** 0.06
17741 C 148.95155387834615 30.339620172325766 7.135539637342575 C 0.0 **** -0.24
17742 H 149.33924149501252 29.60104586891137 6.433797199445479 H 0.0 **** 0.06
17743 H 148.0601840641673 30.80656257322653 6.716613886412404 H 0.0 **** 0.06
17744 H 149.71085884731167 31.10156131901556 7.317349495443523 H 0.0 **** 0.06
17745 H 148.69823128961798 29.849186368797334 8.076039241961794 H 0.0 **** 0.06
17746 C 211.18727498357197 77.30592315052138 152.7593890267545 C 0.0 **** -0.24
17747 H 211.4137743885787 77.31566734007413 153.82529436852627 H 0.0 **** 0.06
17748 H 210.1217258199581 77.47992516079182 152.61251015668324 H 0.0 **** 0.06
17749 H 211.45891874866453 76.33735544128757 152.3388329595303 H 0.0 **** 0.06
17750 H 211.756632308706 78.0899216480268 152.26020095866681 H 0.0 **** 0.06
17751 C 84.33427743860409 28.800199131709945 117.09825414101356 C 0.0 **** -0.24
17752 H 84.53661451087987 29.268592002403125 118.06113417186363 H 0.0 **** 0.06
17753 H 83.31235097139228 29.026350099462036 116.79264951882625 H 0.0 **** 0.06
17754 H 84.45692294857986 27.720340806599722 117.18817762076442 H 0.0 **** 0.06
17755 H 85.03052395531012 29.184630257012884 116.35323090236854 H 0.0 **** 0.06
17756 C 18.274509868984453 36.35128493293442 63.80522160983213 C 0.0 **** -0.24
17757 H 19.263717624160606 36.79919404359612 63.702968942875145 H 0.0 **** 0.06
17758 H 18.352745169469884 35.421865477011096 64.36942445646093 H 0.0 **** 0.06
17759 H 17.866993697519092 36.14290531805631 62.81556931921236 H 0.0 **** 0.06
17760 H 17.616062068365977 37.04265727882503 64.33165291554354 H 0.0 **** 0.06
17761 C 193.85524724479004 140.8670616090484 171.09691896226002 C 0.0 **** -0.24
17762 H 193.07357694796187 141.59753476638622 171.30674188518537 H 0.0 **** 0.06
17763 H 194.28847350536654 140.52054579622575 172.03469021342977 H 0.0 **** 0.06
17764 H 194.63002172217057 141.33026172387497 170.48672941504486 H 0.0 **** 0.06
17765 H 193.42650528363947 140.02146265475886 170.55864497600282 H 0.0 **** 0.06
17766 C 167.80012724665025 41.600152888350124 164.92487070328886 C 0.0 **** -0.24
17767 H 166.7261214870818 41.42690190359522 164.8572551658018 H 0.0 **** 0.06
17768 H 168.13685548593645 41.392372882695355 165.9413930733524 H 0.0 **** 0.06
17769 H 168.0166151184539 42.63813733927127 164.67471595809178 H 0.0 **** 0.06
17770 H 168.31845301963807 40.94169672673766 164.22775305569252 H 0.0 **** 0.06
17771 C 9.305775679275612 207.77197219443133 65.5576749307333 C 0.0 **** -0.24
17772 H 10.307487278753953 207.34145539733268 65.57817649161967 H 0.0 **** 0.06
17773 H 9.112250524719101 208.2863463535483 66.49957375457427 H 0.0 **** 0.06
17774 H 8.572757434727151 206.9789595683099 65.41880333530531 H 0.0 **** 0.06
17775 H 9.233760009087987 208.48253528247426 64.73386367272997 H 0.0 **** 0.06
17776 C 106.59666007177758 158.90865336045175 48.20864998590906 C 0.0 **** -0.24
17777 H 106.17407498144722 158.68245805359626 49.18722019205745 H 0.0 **** 0.06
17778 H 105.96651340530231 159.64075089753058 47.701695801911285 H 0.0 **** 0.06
17779 H 106.6457920975251 157.99726860243425 47.6139055191349 H 0.0 **** 0.06
17780 H 107.60002386719692 159.3165522741413 48.33210326167659 H 0.0 **** 0.06
17781 C 193.0583099750187 35.34166355972883 104.44295550624089 C 0.0 **** -0.24
17782 H 192.1675570250727 35.93971815493035 104.25278977345592 H 0.0 **** 0.06
17783 H 193.375669149653 34.85797717142867 103.51935182385826 H 0.0 **** 0.06
17784 H 192.83273587414755 34.58302007653651 105.19241899926074 H 0.0 **** 0.06
17785 H 193.85761119912456 35.98698662081921 104.80893208513727 H 0.0 **** 0.06
17786 C 155.3656428452304 201.28485656955104 205.74451061139249 C 0.0 **** -0.24
17787 H 154.96615852690059 201.14484246794822 204.73980245657086 H 0.0 **** 0.06
17788 H 155.36542501787068 200.33026489286658 206.27149052982833 H 0.0 **** 0.06
17789 H 154.74586061883008 201.99925289194684 206.28515559729993 H 0.0 **** 0.06
17790 H 156.3851581351733 201.66496022399608 205.6801839384552 H 0.0 **** 0.06
17791 C 51.64206138988828 115.92355084518827 73.24950844287976 C 0.0 **** -0.24
17792 H 51.12500921777428 116.75820518059435 73.72263773170947 H 0.0 **** 0.06
17793 H 50.91752323765587 115.29372549626332 72.73308455079724 H 0.0 **** 0.06
17794 H 52.157057638618994 115.3368342087147 74.01049240893589 H 0.0 **** 0.06
17795 H 52.367939225742475 116.30610837682097 72.53201472296804 H 0.0 **** 0.06
17796 C 151.5203710145422 75.6420104471527 82.49795863860567 C 0.0 **** -0.24
17797 H 150.72835232281966 76.02403533418214 81.85415936264246 H 0.0 **** 0.06
17798 H 152.3459509037989 75.2804439478428 81.88323537957416 H 0.0 **** 0.06
17799 H 151.13267525095887 74.82298693386758 83.10410352500492 H 0.0 **** 0.06
17800 H 151.87568962192825 76.43990965487859 83.14994305261303 H 0.0 **** 0.06
17801 C 216.30997830202313 148.57480198558278 80.03037551340141 C 0.0 **** -0.24
17802 H 216.52014126283072 149.59423068042503 80.35450790740823 H 0.0 **** 0.06
17803 H 215.2330603366332 148.40487137069948 80.04669825953964 H 0.0 **** 0.06
17804 H 216.79989026595018 147.87171275589964 80.70262019218818 H 0.0 **** 0.06
17805 H 216.68522753899273 148.43173041040552 79.0171076962189 H 0.0 **** 0.06
17806 C 1.1481846194498075 0.006214331657872663 26.115118436589796 C 0.0 **** -0.24
17807 H 1.726007206651218 0.35730257626329376 26.969888132647725 H 0.0 **** 0.06
17808 H 1.6973200997687172 -0.786408586460766 25.607228424216885 H 0.0 **** 0.06
17809 H 0.9807069135465554 0.8326329359007048 25.42455443395602 H 0.0 **** 0.06
17810 H 0.1883966576363889 -0.37958701105287673 26.459055251726596 H 0.0 **** 0.06
17811 C 167.6896670566751 113.50497382795636 75.77638335023441 C 0.0 **** -0.24
17812 H 168.6056625521992 112.95336287878762 75.98907739662864 H 0.0 **** 0.06
17813 H 167.79400489447423 114.5312340436257 76.12863428815218 H 0.0 **** 0.06
17814 H 166.85224285739753 113.02756682622693 76.28603167603221 H 0.0 **** 0.06
17815 H 167.50821047245904 113.50536405173291 74.70232401026219 H 0.0 **** 0.06
17816 C 64.93337361012411 209.55196690412146 100.17762430017234 C 0.0 **** -0.24
17817 H 66.01482576268046 209.67838796487143 100.12496409660491 H 0.0 **** 0.06
17818 H 64.6942536888669 208.489728973264 100.24119633038259 H 0.0 **** 0.06
17819 H 64.47426129185138 209.97557459508874 99.28491296717038 H 0.0 **** 0.06
17820 H 64.55123714219565 210.06425469120552 101.0616192721323 H 0.0 **** 0.06
17821 C 104.53052589967682 146.65396614869007 26.38201865144022 C 0.0 **** -0.24
17822 H 104.36468316919469 147.25201116486534 25.486252233881658 H 0.0 **** 0.06
17823 H 103.6984480553949 146.79609815038913 27.07213393446935 H 0.0 **** 0.06
17824 H 105.45799382428585 146.96722242009042 26.861413994190173 H 0.0 **** 0.06
17825 H 104.59974332650059 145.60116610299593 26.10800377776758 H 0.0 **** 0.06
17826 C 133.31587560912004 19.315467162125742 119.12580662109742 C 0.0 **** -0.24
17827 H 133.64262602321594 18.274865484223824 119.12974075882416 H 0.0 **** 0.06
17828 H 132.60934463520715 19.476840941064978 119.94057446502707 H 0.0 **** 0.06
17829 H 132.8329092013709 19.541255634559406 118.17531035902984 H 0.0 **** 0.06
17830 H 134.17946884193753 19.966772315709193 119.25953192886705 H 0.0 **** 0.06
17831 C 8.093187434532268 90.34217827168168 187.0585318716804 C 0.0 **** -0.24
17832 H 7.647078410188726 90.16010056483843 188.0361328024165 H 0.0 **** 0.06
17833 H 8.604536513094928 91.3051924984279 187.0672994244796 H 0.0 **** 0.06
17834 H 7.311867244883615 90.35195632675293 186.29905292197202 H 0.0 **** 0.06
17835 H 8.809203424995133 89.55202802261589 186.83293750409388 H 0.0 **** 0.06
17836 C 0.2517249626852731 183.41854774189272 192.45989246362933 C 0.0 **** -0.24
17837 H 0.4365473909752495 184.47441805380168 192.65641137689727 H 0.0 **** 0.06
17838 H 0.9172088971352537 182.8125577221877 193.0757304186121 H 0.0 **** 0.06
17839 H 0.4361517686420484 183.2063792311971 191.40738052019546 H 0.0 **** 0.06
17840 H -0.7841093690076946 183.18036098281203 192.70297362935293 H 0.0 **** 0.06
17841 C 45.09949053091316 162.29627256666134 151.2279519577378 C 0.0 **** -0.24
17842 H 45.76804510124656 161.64007414459326 151.78570419958714 H 0.0 **** 0.06
17843 H 44.90829128284298 163.19855821561976 151.81031062811252 H 0.0 **** 0.06
17844 H 44.15828898724908 161.77910742293324 151.03893602986636 H 0.0 **** 0.06
17845 H 45.562851528849066 162.56673614104827 150.2797530559257 H 0.0 **** 0.06
17846 C 190.90244755790332 122.94674841359169 186.0639716209925 C 0.0 **** -0.24
17847 H 190.63895512662532 123.96770210860372 185.78791288460005 H 0.0 **** 0.06
17848 H 191.4211406577444 122.4675102790341 185.2334095084889 H 0.0 **** 0.06
17849 H 189.99648834143002 122.38857089662152 186.29774688741324 H 0.0 **** 0.06
17850 H 191.55369093735064 122.96377610309635 186.93801925108068 H 0.0 **** 0.06
17851 C 170.7749361851844 30.419332824738206 77.92226014140168 C 0.0 **** -0.24
17852 H 171.75967016398528 30.872358397792027 78.04314431027201 H 0.0 **** 0.06
17853 H 170.53210894434653 29.837610231359406 78.81273862495622 H 0.0 **** 0.06
17854 H 170.78124328176202 29.765227009956106 77.05122919211671 H 0.0 **** 0.06
17855 H 170.03032239092514 31.202652030739614 77.78489043825319 H 0.0 **** 0.06
17856 C 144.2889174850739 103.78553793079617 43.97091738073587 C 0.0 **** -0.24
17857 H 143.2225325560874 103.61225649681553 44.115048787460495 H 0.0 **** 0.06
17858 H 144.46026781331057 104.84291694846733 43.76723422446588 H 0.0 **** 0.06
17859 H 144.64311247215528 103.19096076495877 43.1290349450332 H 0.0 **** 0.06
17860 H 144.8297570987424 103.49601751294288 44.872351565983706 H 0.0 **** 0.06
17861 C 170.90574117947102 128.99365181666377 84.15322397914416 C 0.0 **** -0.24
17862 H 170.26586664104713 128.1118448626225 84.2058285050481 H 0.0 **** 0.06
17863 H 170.89146719923562 129.3921807002892 83.13863976663181 H 0.0 **** 0.06
17864 H 171.9260757523976 128.71777064959792 84.42165105861524 H 0.0 **** 0.06
17865 H 170.53870000960688 129.74977984060348 84.84706064836605 H 0.0 **** 0.06
17866 C 175.64175058174075 11.048998003541769 21.42825645821827 C 0.0 **** -0.24
17867 H 175.73049526899624 10.039308800325301 21.829710362188735 H 0.0 **** 0.06
17868 H 176.50304694422647 11.264938408093471 20.795946046087437 H 0.0 **** 0.06
17869 H 175.60525521942486 11.76416368853279 22.24962133260354 H 0.0 **** 0.06
17870 H 174.72920476988497 11.12593905300055 20.838299401121787 H 0.0 **** 0.06
17871 C 105.96796870499988 175.4223570736187 192.2327495024315 C 0.0 **** -0.24
17872 H 105.08465977231991 175.02073830161515 192.72885112548798 H 0.0 **** 0.06
17873 H 106.03090479017244 175.01781754333007 191.2218954195231 H 0.0 **** 0.06
17874 H 106.85871381447977 175.1401758553751 192.79352399972603 H 0.0 **** 0.06
17875 H 105.89636334263021 176.5080562181714 192.18601470232275 H 0.0 **** 0.06
17876 C 213.0794057072447 91.53384911174095 165.26364542995145 C 0.0 **** -0.24
17877 H 213.27428858805246 90.46166688348404 165.2683422286304 H 0.0 **** 0.06
17878 H 214.0241915974956 92.07503579058556 165.30312604863838 H 0.0 **** 0.06
17879 H 212.47346151032465 91.79648440113488 166.13154202141197 H 0.0 **** 0.06
17880 H 212.54390464502902 91.80126021297696 164.3529654402824 H 0.0 **** 0.06
17881 C 214.44690731948668 191.569327773492 166.39438829713598 C 0.0 **** -0.24
17882 H 213.66900379915117 192.03653808514093 166.99839307919436 H 0.0 **** 0.06
17883 H 214.2496550146176 191.76164333275997 165.33859076308198 H 0.0 **** 0.06
17884 H 214.44961923867865 190.49483784697787 166.5734194517106 H 0.0 **** 0.06
17885 H 215.41612238149662 191.98674139322435 166.66554536223137 H 0.0 **** 0.06
17886 C 53.516515655966884 210.84618447290987 18.534554003527518 C 0.0 **** -0.24
17887 H 53.38643086713553 211.10627286669433 17.483975060813805 H 0.0 **** 0.06
17888 H 54.35008721833398 210.15151544526105 18.63661047979417 H 0.0 **** 0.06
17889 H 52.60489213165995 210.37816962001853 18.907272126934345 H 0.0 **** 0.06
17890 H 53.72269240693042 211.74909703323544 19.109329779676443 H 0.0 **** 0.06
17891 C 38.830384907374196 45.81874974608789 106.6485204115282 C 0.0 **** -0.24
17892 H 38.888963242707334 45.150136116598134 107.50653061266452 H 0.0 **** 0.06
17893 H 38.452446670647134 46.789898854140404 106.96986486055728 H 0.0 **** 0.06
17894 H 38.157670951336485 45.394695026972755 105.90304092470704 H 0.0 **** 0.06
17895 H 39.82313846735005 45.94144672353991 106.21425669426948 H 0.0 **** 0.06
17896 C 91.13056965220663 42.519526966433475 129.79151259388783 C 0.0 **** -0.24
17897 H 91.95223652736463 41.851825600608976 130.05026066784956 H 0.0 **** 0.06
17898 H 90.2585362151879 41.929670615289766 129.50763177214986 H 0.0 **** 0.06
17899 H 91.42721843354202 43.15368230848614 128.95604048757025 H 0.0 **** 0.06
17900 H 90.88383534375195 43.14232324016827 130.65092233676916 H 0.0 **** 0.06
17901 C 35.42619392126369 141.3264326447037 42.74876728330551 C 0.0 **** -0.24
17902 H 34.33887814852642 141.38494887005328 42.690206072167896 H 0.0 **** 0.06
17903 H 35.77232833665448 141.88385867278782 43.620449200438046 H 0.0 **** 0.06
17904 H 35.86234898339421 141.7551428048945 41.84593312663202 H 0.0 **** 0.06
17905 H 35.72996396091776 140.2842879217664 42.84025090228579 H 0.0 **** 0.06
17906 C 183.7952830861957 142.1832829707838 170.69569193224277 C 0.0 **** -0.24
17907 H 184.72432821473905 141.9377723147232 171.21304853425585 H 0.0 **** 0.06
17908 H 183.02512262945453 142.4219661500856 171.42857209479757 H 0.0 **** 0.06
17909 H 183.47668111207668 141.32966379818424 170.09808151273307 H 0.0 **** 0.06
17910 H 183.95887787171756 143.04191807680758 170.04498491196586 H 0.0 **** 0.06
17911 C 12.412882367150416 87.55041893227373 150.6936782721575 C 0.0 **** -0.24
17912 H 11.57608943195558 86.94828078278427 150.34093423711164 H 0.0 **** 0.06
17913 H 12.112667554622377 88.5975647667734 150.74155121234577 H 0.0 **** 0.06
17914 H 13.252341912525978 87.4447359959937 150.00692146291493 H 0.0 **** 0.06
17915 H 12.710808522559134 87.21214458073344 151.68617442226264 H 0.0 **** 0.06
17916 C 28.263952833434175 204.70361163415615 69.83842250813802 C 0.0 **** -0.24
17917 H 28.39544502620494 203.89365675012402 70.55500048971254 H 0.0 **** 0.06
17918 H 27.4849648801909 205.37949179078052 70.19319277591552 H 0.0 **** 0.06
17919 H 27.973587035579058 204.29017776026387 68.87204665511962 H 0.0 **** 0.06
17920 H 29.20019567406608 205.25161414820388 69.73308152793885 H 0.0 **** 0.06
17921 C 40.09808492449656 25.266512913446135 190.98378097939877 C 0.0 **** -0.24
17922 H 39.79383827284363 26.03495757364462 191.69385485010486 H 0.0 **** 0.06
17923 H 39.74762272875239 25.532770541917458 189.98660032323932 H 0.0 **** 0.06
17924 H 39.66792647895096 24.309343846738912 191.27702014935693 H 0.0 **** 0.06
17925 H 41.18605414636869 25.188397998253322 190.97784819296953 H 0.0 **** 0.06
17926 C 203.39954733096351 205.17049701397931 192.4937379486152 C 0.0 **** -0.24
17927 H 202.818402572343 205.85129751612715 191.87293076652088 H 0.0 **** 0.06
17928 H 203.2782258222985 205.44290401714466 193.54227104630573 H 0.0 **** 0.06
17929 H 204.45220284961303 205.23830585862072 192.2200712766068 H 0.0 **** 0.06
17930 H 203.0489748575439 204.15019536218426 192.34083731682398 H 0.0 **** 0.06
17931 C 179.97713293521744 112.07072103988212 79.91458550955223 C 0.0 **** -0.24
17932 H 179.1497811037698 112.6840039462865 80.27210497226018 H 0.0 **** 0.06
17933 H 180.6426996410376 111.8399196893045 80.74624278868866 H 0.0 **** 0.06
17934 H 180.52789768443475 112.61519678974422 79.14843378623094 H 0.0 **** 0.06
17935 H 179.5866367998407 111.14444510513958 79.49267224344281 H 0.0 **** 0.06
17936 C 130.99120405972604 182.54347716341152 179.59872066901482 C 0.0 **** -0.24
17937 H 131.23933579848597 182.0043008982824 178.68536766784672 H 0.0 **** 0.06
17938 H 131.82239145696258 182.47177730445503 180.3008430177474 H 0.0 **** 0.06
17939 H 130.09767044063517 182.10758641213147 180.04657117523396 H 0.0 **** 0.06
17940 H 130.80452602466187 183.59146348935923 179.3629472208442 H 0.0 **** 0.06
17941 C 174.9839871428548 45.92620863002418 67.47377330690676 C 0.0 **** -0.24
17942 H 174.54018668161086 46.808001910769235 67.9365215177549 H 0.0 **** 0.06
17943 H 175.76598738763218 46.2351654884975 66.77987819981524 H 0.0 **** 0.06
17944 H 174.21501421858807 45.37377812282409 66.93405272369279 H 0.0 **** 0.06
17945 H 175.41476111503425 45.28871908124768 68.24694536068779 H 0.0 **** 0.06
17946 C 207.9664806981298 81.60314641180354 0.4693830919639481 C 0.0 **** -0.24
17947 H 207.15054764703484 80.90004500177655 0.30565838491065733 H 0.0 **** 0.06
17948 H 207.63260111157751 82.61105971282412 0.22117884003279187 H 0.0 **** 0.06
17949 H 208.8115316813886 81.33249599392046 -0.16459351940818578 H 0.0 **** 0.06
17950 H 208.2706401631855 81.56818968603754 1.5152182480448175 H 0.0 **** 0.06
17951 C 161.79489568633716 134.37906841432152 52.77000108732527 C 0.0 **** -0.24
17952 H 161.7152179166124 133.50175134601142 52.127904244904286 H 0.0 **** 0.06
17953 H 162.4580394466269 134.15727504859586 53.606501059009645 H 0.0 **** 0.06
17954 H 160.80664306378463 134.6414276269757 53.14899257970042 H 0.0 **** 0.06
17955 H 162.19753461870783 135.21380093272575 52.196047558552536 H 0.0 **** 0.06
17956 C 5.44664968191713 138.14328344496033 60.88019813870517 C 0.0 **** -0.24
17957 H 5.470950828227515 137.09057434217192 60.599116067720615 H 0.0 **** 0.06
17958 H 5.576261714773594 138.759654694255 59.98991651967734 H 0.0 **** 0.06
17959 H 6.251280401261809 138.34932163328767 61.58589906941256 H 0.0 **** 0.06
17960 H 4.48715238283107 138.37304605666424 61.34496499912075 H 0.0 **** 0.06
17961 C 100.66775194554937 105.62635061134306 49.889381105780956 C 0.0 **** -0.24
17962 H 100.03512321208073 106.26744871817884 50.50378020245631 H 0.0 **** 0.06
17963 H 101.11111293260957 106.215103161653 49.086183365438444 H 0.0 **** 0.06
17964 H 100.06567503226584 104.82386163272061 49.4633588478319 H 0.0 **** 0.06
17965 H 101.45830776522676 105.19864694177475 50.506266192054824 H 0.0 **** 0.06
17966 C 1.4779189447399688 73.21696577949427 176.69323705454966 C 0.0 **** -0.24
17967 H 0.9141527683799495 74.1321078854237 176.50901767303023 H 0.0 **** 0.06
17968 H 1.2406520698868917 72.48415547906308 175.92201618469647 H 0.0 **** 0.06
17969 H 1.2085150799343296 72.81657856712957 177.67101299440452 H 0.0 **** 0.06
17970 H 2.544466952576954 73.43752227238542 176.67168961395035 H 0.0 **** 0.06
17971 C 74.41629809720833 94.96082845108498 177.59949163118108 C 0.0 **** -0.24
17972 H 74.77446051057471 95.26215846435167 178.58424797549435 H 0.0 **** 0.06
17973 H 73.86104066537082 94.02660489957572 177.68460732125544 H 0.0 **** 0.06
17974 H 75.26626654284213 94.82023078102486 176.93198727334507 H 0.0 **** 0.06
17975 H 73.76364475217115 95.73619293177813 177.1983249954921 H 0.0 **** 0.06
17976 C 58.69688811480853 133.4359811822314 77.40665332938919 C 0.0 **** -0.24
17977 H 58.95654896657341 132.45619941618997 77.0043274797237 H 0.0 **** 0.06
17978 H 58.02544479676243 133.31229017044438 78.25638831296702 H 0.0 **** 0.06
17979 H 58.20201767378373 134.0259200109382 76.63470671600864 H 0.0 **** 0.06
17980 H 59.603712881083226 133.94771564512496 77.73033501588871 H 0.0 **** 0.06
17981 C 176.01817479203498 18.638701061763243 54.20720396513272 C 0.0 **** -0.24
17982 H 175.50370541182951 17.686981534443305 54.07492648345158 H 0.0 **** 0.06
17983 H 177.0839290543163 18.503225192114456 54.026241930402335 H 0.0 **** 0.06
17984 H 175.86442205754804 18.996667981168088 55.225258442957795 H 0.0 **** 0.06
17985 H 175.61885285408778 19.36849120482924 53.501695281777074 H 0.0 **** 0.06
17986 C 41.60938447739818 140.3189779970018 165.81346852773123 C 0.0 **** -0.24
17987 H 42.25203851459054 139.43879850887396 165.7940522013637 H 0.0 **** 0.06
17988 H 40.582516504651664 140.0148709814177 166.0157016154878 H 0.0 **** 0.06
17989 H 41.65598027003398 140.82522916165323 164.84906418596083 H 0.0 **** 0.06
17990 H 41.948067173073014 140.99781686353015 166.5971106573894 H 0.0 **** 0.06
17991 C 132.51782929787964 162.23305493797088 159.45815098411376 C 0.0 **** -0.24
17992 H 132.74384867163462 162.3698325382191 158.40086187521183 H 0.0 **** 0.06
17993 H 132.16452283035653 163.17433953400962 159.87911177212183 H 0.0 **** 0.06
17994 H 133.41808146074555 161.91479083942076 159.98371843097127 H 0.0 **** 0.06
17995 H 131.7449212672429 161.47157224041803 159.56931050701934 H 0.0 **** 0.06
17996 C 120.62433989572257 194.17160721050553 207.24608497380834 C 0.0 **** -0.24
17997 H 121.0567838293973 193.24989464857717 206.8572568265716 H 0.0 **** 0.06
17998 H 120.14240906874538 193.9719415712589 208.20361850444144 H 0.0 **** 0.06
17999 H 119.88563182266968 194.5515365788471 206.54008978920325 H 0.0 **** 0.06
18000 H 121.41131403024791 194.91276869811372 207.38272129490096 H 0.0 **** 0.06
18001 C 167.49383616281733 84.5404524216675 180.60519185029278 C 0.0 **** -0.24
18002 H 168.55432463697983 84.43938247015716 180.37529580647526 H 0.0 **** 0.06
18003 H 167.27155737951716 84.01541962936115 181.53434514823942 H 0.0 **** 0.06
18004 H 166.90401968916024 84.1102589252237 179.7951725688751 H 0.0 **** 0.06
18005 H 167.24513496359896 85.5957092812365 180.71460299427616 H 0.0 **** 0.06
18006 C 123.73611425726152 179.09861878042284 179.16558376332466 C 0.0 **** -0.24
18007 H 122.85437319146315 179.69445495784072 179.3989291285912 H 0.0 **** 0.06
18008 H 124.49093083296479 179.7335773594924 178.70172529754387 H 0.0 **** 0.06
18009 H 123.46166306289568 178.29845611410968 178.47790041132694 H 0.0 **** 0.06
18010 H 124.13691304951006 178.6676295414943 180.08218657503986 H 0.0 **** 0.06
18011 C 35.20298788716386 24.631212415088868 130.85073512523348 C 0.0 **** -0.24
18012 H 34.74507639773408 24.269033480411252 131.77180658982263 H 0.0 **** 0.06
18013 H 35.07034212127924 23.888568363874356 130.06292354955144 H 0.0 **** 0.06
18014 H 36.2674508234484 24.798378289473476 131.01707626393176 H 0.0 **** 0.06
18015 H 34.72992357430269 25.566170308902542 130.5525506049649 H 0.0 **** 0.06
18016 C 151.206190082102 196.64534580785363 1.2937147231861843 C 0.0 **** -0.24
18017 H 150.52565546142625 195.94429831839673 0.8114345465579049 H 0.0 **** 0.06
18018 H 150.78559025610593 197.65021357257896 1.2466433772057144 H 0.0 **** 0.06
18019 H 152.16860224164418 196.6297757439848 0.7807375592258268 H 0.0 **** 0.06
18020 H 151.34582760876066 196.3571585007436 2.33564541904704 H 0.0 **** 0.06
18021 C 143.59029225631662 5.284817944726434 48.012537832718834 C 0.0 **** -0.24
18022 H 143.7481555003954 5.344269288624481 49.08961808889491 H 0.0 **** 0.06
18023 H 142.92194323713937 4.45299079690507 47.78940709378962 H 0.0 **** 0.06
18024 H 144.545503589549 5.127694840887727 47.51313744335643 H 0.0 **** 0.06
18025 H 143.14418449551533 6.214580622823362 47.659993709245896 H 0.0 **** 0.06
18026 C 205.87485664958734 132.33969642959147 26.01114997683267 C 0.0 **** -0.24
18027 H 205.38727779501582 133.15698498034618 25.478121411899735 H 0.0 **** 0.06
18028 H 206.95659861768 132.45957660603773 25.946766716216146 H 0.0 **** 0.06
18029 H 205.58619265681392 131.39033605633068 25.561518911172428 H 0.0 **** 0.06
18030 H 205.56836742107856 132.35489479121355 27.056785902678683 H 0.0 **** 0.06
18031 C 62.681050468989255 20.200888614531095 21.49883903208854 C 0.0 **** -0.24
18032 H 62.16832702233103 20.7624186665783 22.279960539145577 H 0.0 **** 0.06
18033 H 63.26519587766933 19.398704702560167 21.952067764746573 H 0.0 **** 0.06
18034 H 63.34503353341566 20.866811241697576 20.948404051432988 H 0.0 **** 0.06
18035 H 61.94622289904363 19.774047422996887 20.816405026072687 H 0.0 **** 0.06
18036 C 139.20539952779694 210.22108465743813 164.08143456914223 C 0.0 **** -0.24
18037 H 138.92291832811236 210.98331527757568 164.80825160687567 H 0.0 **** 0.06
18038 H 138.4098351928714 209.4803739561934 164.0038190153805 H 0.0 **** 0.06
18039 H 140.1251301968676 209.73365405859744 164.4063546526677 H 0.0 **** 0.06
18040 H 139.36621570997687 210.68768765818004 163.10937801821143 H 0.0 **** 0.06
18041 C 152.7755110733566 21.4393136656046 10.73133869913903 C 0.0 **** -0.24
18042 H 153.3614130696423 22.355374429554686 10.805430948228974 H 0.0 **** 0.06
18043 H 153.29006142072046 20.635974760417042 11.259335568024184 H 0.0 **** 0.06
18044 H 152.65706754917431 21.166782393689886 9.682804976422716 H 0.0 **** 0.06
18045 H 151.7944867868723 21.598138284960967 11.178030103155862 H 0.0 **** 0.06
18046 C 141.44304036340702 190.16806334654657 36.2404704254439 C 0.0 **** -0.24
18047 H 140.77996495656333 190.4372763526041 37.06300401691635 H 0.0 **** 0.06
18048 H 140.84733140010024 189.9246641013125 35.360139923914176 H 0.0 **** 0.06
18049 H 142.0430338922891 189.30401722468213 36.52423473626061 H 0.0 **** 0.06
18050 H 142.09953055272535 191.00864387474616 36.01406336795705 H 0.0 **** 0.06
18051 C 103.82904211709102 62.34266329415726 102.1300617844098 C 0.0 **** -0.24
18052 H 103.10715042084895 61.52821272208915 102.19203584778649 H 0.0 **** 0.06
18053 H 104.62396031382598 62.06999412365195 101.43590998515617 H 0.0 **** 0.06
18054 H 104.25423878629643 62.52569735790735 103.11627192446815 H 0.0 **** 0.06
18055 H 103.32966620500612 63.244053336735945 101.77666568421711 H 0.0 **** 0.06
18056 C 53.42196850036943 24.262738323026838 78.67767176900186 C 0.0 **** -0.24
18057 H 53.59912143268076 23.195533384171995 78.81554350041354 H 0.0 **** 0.06
18058 H 54.2077945730086 24.681334340694235 78.04785201977712 H 0.0 **** 0.06
18059 H 53.4290589005617 24.760891195739703 79.64666225509337 H 0.0 **** 0.06
18060 H 52.454551503937125 24.411408515702647 78.19929676536331 H 0.0 **** 0.06
18061 C 99.96544808285184 55.964483964271835 53.43156111821412 C 0.0 **** -0.24
18062 H 98.96843289109238 56.237178808243854 53.08656205347705 H 0.0 **** 0.06
18063 H 100.12131078822712 54.89569256795305 53.28171812993321 H 0.0 **** 0.06
18064 H 100.05949234934893 56.20041940275908 54.4922176626186 H 0.0 **** 0.06
18065 H 100.71161263472045 56.52374127256833 52.867260791274305 H 0.0 **** 0.06
18066 C 188.96537335913348 45.33222857130602 13.894665077969648 C 0.0 **** -0.24
18067 H 188.50312551211795 44.34973068495839 13.796654996724783 H 0.0 **** 0.06
18068 H 188.70681502689084 45.75934705074661 14.864684957105226 H 0.0 **** 0.06
18069 H 188.60152112799216 45.98520266808225 13.101633860405968 H 0.0 **** 0.06
18070 H 190.0477923117587 45.23436908047927 13.81739378933463 H 0.0 **** 0.06
18071 C 27.625678931130338 204.61288178214969 162.27271060150224 C 0.0 **** -0.24
18072 H 27.163097971204024 205.51275246756967 161.86892759116571 H 0.0 **** 0.06
18073 H 26.884964452766127 204.04401445902775 162.83347984426314 H 0.0 **** 0.06
18074 H 28.44652067465796 204.89245435231197 162.93279554994226 H 0.0 **** 0.06
18075 H 28.009385941185727 204.00377643798825 161.4545139626969 H 0.0 **** 0.06
18076 C 187.18059259848843 54.17890645304368 138.03371504472034 C 0.0 **** -0.24
18077 H 187.75464462551855 54.11230944547742 138.95763508291355 H 0.0 **** 0.06
18078 H 187.18267085478476 53.20995915016579 137.53410825134353 H 0.0 **** 0.06
18079 H 187.63003274107135 54.9267973537888 137.38007683930857 H 0.0 **** 0.06
18080 H 186.15460004471095 54.4668725958918 138.2638909007199 H 0.0 **** 0.06
18081 C 86.06068533904 27.140322371131987 54.393740995228654 C 0.0 **** -0.24
18082 H 86.86976445936052 26.87637331107456 55.07452804080762 H 0.0 **** 0.06
18083 H 85.17470150785566 26.555070198368583 54.639715953160135 H 0.0 **** 0.06
18084 H 86.3654181266076 26.92760082458142 53.369022199914866 H 0.0 **** 0.06
18085 H 85.83478067396082 28.202053806961786 54.49320243884026 H 0.0 **** 0.06
18086 C 137.70125937865697 59.379803573592085 72.32826744753987 C 0.0 **** -0.24
18087 H 137.91205575496093 59.51846490791041 71.26786089383984 H 0.0 **** 0.06
18088 H 138.4964864482393 59.83433718067198 72.91896723701859 H 0.0 **** 0.06
18089 H 137.64557205414957 58.31390053590923 72.55135215860452 H 0.0 **** 0.06
18090 H 136.75004842415723 59.851773944808485 72.57358931625566 H 0.0 **** 0.06
18091 C 113.80868444879157 74.53448891298251 166.73191858230334 C 0.0 **** -0.24
18092 H 112.8703661889191 74.78111845290903 166.23490464581192 H 0.0 **** 0.06
18093 H 113.88540956008562 73.45219770708258 166.84479095018108 H 0.0 **** 0.06
18094 H 113.83348636730248 75.00480415004097 167.71531605662574 H 0.0 **** 0.06
18095 H 114.64330281732104 74.89778930195394 166.1329668900499 H 0.0 **** 0.06
18096 C 10.589861900753476 107.41599102384374 114.32522887798707 C 0.0 **** -0.24
18097 H 9.537774060368378 107.46660042856713 114.04595841815241 H 0.0 **** 0.06
18098 H 10.690394480652799 107.59070691464272 115.39689566924507 H 0.0 **** 0.06
18099 H 11.148121173009883 108.17488296674104 113.77854733240586 H 0.0 **** 0.06
18100 H 10.982781960793915 106.4283305181565 114.0794612536523 H 0.0 **** 0.06
18101 C 199.88538024150967 113.65660584268015 200.85674253917654 C 0.0 **** -0.24
18102 H 199.16868734446035 114.47717913668824 200.88283640460173 H 0.0 **** 0.06
18103 H 199.4732966271446 112.79645726172562 201.38421637419987 H 0.0 **** 0.06
18104 H 200.81263824401248 113.96912360482527 201.33864855596124 H 0.0 **** 0.06
18105 H 200.089035079977 113.38395047146629 199.82067405133552 H 0.0 **** 0.06
18106 C 203.50160771202525 208.20499079365652 80.00509415181749 C 0.0 **** -0.24
18107 H 203.426566630692 208.2630317912235 78.91928836200093 H 0.0 **** 0.06
18108 H 203.4347703874588 207.16238477983998 80.31784745573383 H 0.0 **** 0.06
18109 H 202.6888805293753 208.7731271930195 80.45622348278705 H 0.0 **** 0.06
18110 H 204.45697214683645 208.6198662349123 80.32559889828939 H 0.0 **** 0.06
18111 C 115.54834966985648 130.18697239128034 121.96897059230996 C 0.0 **** -0.24
18112 H 115.40226545184727 129.48512108371165 122.79007307111307 H 0.0 **** 0.06
18113 H 115.2786306645413 129.70589633247903 121.02865648252099 H 0.0 **** 0.06
18114 H 116.59418792265818 130.4921518714537 121.93384266526313 H 0.0 **** 0.06
18115 H 114.9189576871796 131.06328918005488 122.1240439771809 H 0.0 **** 0.06
18116 C 168.43913396776475 162.2819915367383 119.3746179681787 C 0.0 **** -0.24
18117 H 167.74307523996208 161.45763235532888 119.22670486005386 H 0.0 **** 0.06
18118 H 168.1016268540111 162.895901064896 120.2102944569214 H 0.0 **** 0.06
18119 H 168.47977521477253 162.89026165483398 118.47032326455069 H 0.0 **** 0.06
18120 H 169.43138067047258 161.88650851876318 119.59087197101142 H 0.0 **** 0.06
18121 C 215.49574661224506 3.3707566602267605 178.6222510486672 C 0.0 **** -0.24
18122 H 215.80755522554045 3.0734140994705044 177.62090598789138 H 0.0 **** 0.06
18123 H 215.91757523823708 4.347096499178747 178.8598815562042 H 0.0 **** 0.06
18124 H 215.84831418843902 2.6350612928305637 179.34517951576106 H 0.0 **** 0.06
18125 H 214.40734723411984 3.425739780067829 178.66192226825592 H 0.0 **** 0.06
18126 C 205.63548811104138 99.89947243098506 190.5312962564122 C 0.0 **** -0.24
18127 H 205.68305461437626 98.84333969460486 190.26606200842107 H 0.0 **** 0.06
18128 H 205.23366804893243 100.00347178008839 191.53870922719145 H 0.0 **** 0.06
18129 H 204.98870101880178 100.42202493823025 189.82577836939478 H 0.0 **** 0.06
18130 H 206.6367276798176 100.32837814583208 190.49171913254924 H 0.0 **** 0.06
18131 C 21.58711711055429 185.9609886576484 120.19901890249041 C 0.0 **** -0.24
18132 H 21.383639125106782 186.95702130161385 120.59236584859717 H 0.0 **** 0.06
18133 H 20.674772262411636 185.36532894478546 120.2293095145345 H 0.0 **** 0.06
18134 H 22.35537412978971 185.48138781574016 120.80553380040321 H 0.0 **** 0.06
18135 H 21.934873945062577 186.04242885612172 119.1686030468805 H 0.0 **** 0.06
18136 C 133.6847059182757 111.17062222250367 162.16015878950572 C 0.0 **** -0.24
18137 H 133.8009822689333 110.15698765034726 162.5420578329287 H 0.0 **** 0.06
18138 H 133.75896239724483 111.16106111963201 161.07253766776014 H 0.0 **** 0.06
18139 H 134.46811307058914 111.80692311769015 162.57255611113803 H 0.0 **** 0.06
18140 H 132.70927839248884 111.55969018332134 162.4549204352974 H 0.0 **** 0.06
18141 C 202.05736657354578 45.63765340731169 44.85435304584209 C 0.0 **** -0.24
18142 H 201.7302144102092 45.9476050424218 45.84727026167832 H 0.0 **** 0.06
18143 H 201.92130471841614 46.461414815370915 44.153537482993144 H 0.0 **** 0.06
18144 H 201.4664311217973 44.781771926950285 44.528730082224 H 0.0 **** 0.06
18145 H 203.11063604132562 45.35981561071259 44.88992999301631 H 0.0 **** 0.06
18146 C 108.18824281247647 19.64442960614781 27.221485271478173 C 0.0 **** -0.24
18147 H 108.45527391683522 19.118891478553735 26.304347216717943 H 0.0 **** 0.06
18148 H 107.44063945007794 19.067609607771047 27.76620725830179 H 0.0 **** 0.06
18149 H 107.78134682952778 20.62409492263359 26.97155596584632 H 0.0 **** 0.06
18150 H 109.0765112902523 19.76672296811961 27.841550258136053 H 0.0 **** 0.06
18151 C 214.0000724077522 181.82035942302264 158.38067053724797 C 0.0 **** -0.24
18152 H 213.05807821772976 181.2900127803454 158.24129507215207 H 0.0 **** 0.06
18153 H 214.65360324163328 181.63001182029575 157.5284737284611 H 0.0 **** 0.06
18154 H 214.48113458432198 181.47118530283478 159.29359481133196 H 0.0 **** 0.06
18155 H 213.8061435983497 182.89091778302358 158.45844957911282 H 0.0 **** 0.06
18156 C 148.13133671366916 136.63347774754425 135.87626465108002 C 0.0 **** -0.24
18157 H 147.58171776674146 137.3951823581051 136.42935256219624 H 0.0 **** 0.06
18158 H 147.4922912301588 136.21997599889403 135.09622407146531 H 0.0 **** 0.06
18159 H 148.43488836886866 135.83806760341537 136.55751368467844 H 0.0 **** 0.06
18160 H 149.0159819522579 137.08135313707902 135.42254712882948 H 0.0 **** 0.06
18161 C 104.08123172581604 51.76341373944162 70.77904305780986 C 0.0 **** -0.24
18162 H 103.61528007232307 51.75476265640414 69.79296224143924 H 0.0 **** 0.06
18163 H 103.42604569404953 52.27511954747314 71.4852325476024 H 0.0 **** 0.06
18164 H 105.035778284205 52.285443705038986 70.7247503837451 H 0.0 **** 0.06
18165 H 104.245573293775 50.73841391413046 71.11151462796384 H 0.0 **** 0.06
18166 C 31.842508364098308 137.88299594911314 209.2153664694229 C 0.0 **** -0.24
18167 H 31.664863922258235 136.84913565782506 208.91860310634786 H 0.0 **** 0.06
18168 H 32.830698322534374 137.9658989151116 209.66828682463697 H 0.0 **** 0.06
18169 H 31.084732960390426 138.1886750750051 209.9360375650106 H 0.0 **** 0.06
18170 H 31.78946667956319 138.5266545851427 208.33702070317864 H 0.0 **** 0.06
18171 C 95.871156871064 191.8819663265476 142.3507607468742 C 0.0 **** -0.24
18172 H 96.33267986486887 191.14147592946077 141.69795401879446 H 0.0 **** 0.06
18173 H 96.6368850033004 192.34478487958046 142.9734200064608 H 0.0 **** 0.06
18174 H 95.1310863797065 191.3943467211626 142.98674498904808 H 0.0 **** 0.06
18175 H 95.38236514190989 192.64493929053432 141.74593844465994 H 0.0 **** 0.06
18176 C 212.06806270547577 143.45643760275402 38.9626884911122 C 0.0 **** -0.24
18177 H 212.17511811901784 142.5784972055123 39.598913227877745 H 0.0 **** 0.06
18178 H 213.0026263539536 143.63705211860253 38.43082447281586 H 0.0 **** 0.06
18179 H 211.8267873911851 144.3236637714349 39.57779347483037 H 0.0 **** 0.06
18180 H 211.26659172089327 143.28730190863791 38.242842304685524 H 0.0 **** 0.06
18181 C 149.74876076098604 83.00010179483972 110.69022391643936 C 0.0 **** -0.24
18182 H 150.81408507170386 83.08151046610645 110.4757411234991 H 0.0 **** 0.06
18183 H 149.5830718460757 83.11426850983754 111.76109051258528 H 0.0 **** 0.06
18184 H 149.38782803131056 82.02264332969524 110.36806142067267 H 0.0 **** 0.06
18185 H 149.21008620689213 83.78151352778501 110.15303997583631 H 0.0 **** 0.06
18186 C 216.17423313808655 64.29160317144829 9.889575605003671 C 0.0 **** -0.24
18187 H 216.73659701588272 65.22211986279262 9.817189970679081 H 0.0 **** 0.06
18188 H 215.6395789760102 64.1168842879515 8.955490818254404 H 0.0 **** 0.06
18189 H 215.46007497833887 64.36236213701056 10.71025424842685 H 0.0 **** 0.06
18190 H 216.86105029942618 63.46627272015553 10.075967562215908 H 0.0 **** 0.06
18191 C 35.41723237210576 40.73639048460683 101.04073346667279 C 0.0 **** -0.24
18192 H 34.70931200332916 41.28359545532159 100.41855937440953 H 0.0 **** 0.06
18193 H 35.842623680844724 41.408501988008226 101.78533905462429 H 0.0 **** 0.06
18194 H 36.214477615448516 40.33380598434454 100.41588958312697 H 0.0 **** 0.06
18195 H 34.90119697707971 39.91719215870211 101.54272523167417 H 0.0 **** 0.06
18196 C 0.6260890555442344 108.47830589185274 118.87749760224658 C 0.0 **** -0.24
18197 H 1.0373778687769288 108.76786324017867 119.84501205044491 H 0.0 **** 0.06
18198 H 1.0025205084738502 107.49248993808497 118.60427534000077 H 0.0 **** 0.06
18199 H 0.9271568829137848 109.20514104366278 118.1231243786287 H 0.0 **** 0.06
18200 H -0.4621046333125136 108.44830576914738 118.93965577822887 H 0.0 **** 0.06
18201 C 188.9069543190325 58.34460343560576 117.52553672078362 C 0.0 **** -0.24
18202 H 189.74325201265427 58.97538015594705 117.82862260112903 H 0.0 **** 0.06
18203 H 188.75791339410816 57.56001097434046 118.26692905835817 H 0.0 **** 0.06
18204 H 189.1245779093275 57.8942013318983 116.55740964015867 H 0.0 **** 0.06
18205 H 188.00431395630642 58.950648675941636 117.44998757738252 H 0.0 **** 0.06
18206 C 99.9903618355907 214.73653790271774 95.46670984646077 C 0.0 **** -0.24
18207 H 100.95868417301642 214.25126283386507 95.5940405821482 H 0.0 **** 0.06
18208 H 99.93865675309138 215.6183467721204 96.10644796714767 H 0.0 **** 0.06
18209 H 99.19757146628234 214.0407796541746 95.74189711058078 H 0.0 **** 0.06
18210 H 99.86747765876294 215.03406063125306 94.42555623935324 H 0.0 **** 0.06
18211 C 108.81017413645797 126.52527317670852 215.0522139759433 C 0.0 **** -0.24
18212 H 108.39540048024064 127.03230791282475 215.9231460739694 H 0.0 **** 0.06
18213 H 108.03791854436342 126.41890696330272 214.2901308624325 H 0.0 **** 0.06
18214 H 109.17165779609887 125.53890809003529 215.3450204597129 H 0.0 **** 0.06
18215 H 109.63840483342783 127.11071639690694 214.6514106496363 H 0.0 **** 0.06
18216 C 174.70615398298483 58.92799742757387 142.83634112836927 C 0.0 **** -0.24
18217 H 173.6963162257374 58.681747013725186 142.50726729998945 H 0.0 **** 0.06
18218 H 175.4274947743081 58.528036488807714 142.12390246928533 H 0.0 **** 0.06
18219 H 174.8837184668585 58.489792731206165 143.8180705320101 H 0.0 **** 0.06
18220 H 174.81438631453102 60.011184950911 142.89657149793334 H 0.0 **** 0.06
18221 C 117.25395746359898 66.0411949725957 162.86909434477425 C 0.0 **** -0.24
18222 H 117.71279496052357 66.91456719828888 163.33343070702244 H 0.0 **** 0.06
18223 H 117.00203388084172 66.27162193184449 161.83394988080516 H 0.0 **** 0.06
18224 H 116.34767913284851 65.77505058224432 163.4135765725544 H 0.0 **** 0.06
18225 H 117.95351771638552 65.20582804594963 162.89627310214388 H 0.0 **** 0.06
18226 C 37.90339316269602 161.33534106687802 161.5660165504749 C 0.0 **** -0.24
18227 H 36.976354091370396 160.7827772164428 161.41198443028924 H 0.0 **** 0.06
18228 H 38.605764447504924 161.09651745132192 160.7682114524414 H 0.0 **** 0.06
18229 H 38.33552665599099 161.05632856782972 162.5266880840437 H 0.0 **** 0.06
18230 H 37.69409295180597 162.40507443254606 161.5586622154073 H 0.0 **** 0.06
18231 C 63.07001805403496 86.35016641360653 22.41693366384166 C 0.0 **** -0.24
18232 H 63.202095623615605 85.29156601275002 22.640680941485016 H 0.0 **** 0.06
18233 H 63.66961603507039 86.94508254506786 23.106065145083505 H 0.0 **** 0.06
18234 H 62.017971946116575 86.61626579345295 22.527361343165524 H 0.0 **** 0.06
18235 H 63.38818064572206 86.54757454141605 21.393321075548272 H 0.0 **** 0.06
18236 C 170.4293409885965 134.92764554139757 27.847045843646526 C 0.0 **** -0.24
18237 H 171.29269959842034 135.46632550977466 28.239308461981565 H 0.0 **** 0.06
18238 H 170.53070824392518 133.86595288002076 28.07225354863759 H 0.0 **** 0.06
18239 H 170.37303198909507 135.06733191663227 26.768033735151647 H 0.0 **** 0.06
18240 H 169.52111449267568 135.31229618648172 28.31127278599091 H 0.0 **** 0.06
18241 C 200.86527039987232 189.53867173176582 20.424951686067317 C 0.0 **** -0.24
18242 H 201.14319523362377 188.49407951115836 20.28728904185789 H 0.0 **** 0.06
18243 H 201.6882567232701 190.07424308888105 20.89743550316922 H 0.0 **** 0.06
18244 H 199.98103586592316 189.59847420801188 21.05989349274539 H 0.0 **** 0.06
18245 H 200.64786458725436 189.98728304323828 19.455504552577295 H 0.0 **** 0.06
18246 C 87.4999988921498 122.75946640394308 180.46736620601686 C 0.0 **** -0.24
18247 H 87.10863192588722 123.62725910048358 180.9984028077759 H 0.0 **** 0.06
18248 H 86.80716864682948 122.47578024478146 179.67453421410505 H 0.0 **** 0.06
18249 H 87.61470588683191 121.92916109151754 181.1643213937631 H 0.0 **** 0.06
18250 H 88.46813941293162 123.00570402099517 180.03329124137417 H 0.0 **** 0.06
18251 C 68.68123272540318 98.47753085039786 179.2435073168228 C 0.0 **** -0.24
18252 H 69.10531248793873 98.66706178677684 178.25758058983564 H 0.0 **** 0.06
18253 H 69.38321661688055 98.80839305374498 180.00971484477185 H 0.0 **** 0.06
18254 H 68.49264350682006 97.4098832168168 179.35831055077813 H 0.0 **** 0.06
18255 H 67.74372622576341 99.02531605486267 179.34711280411744 H 0.0 **** 0.06
18256 C 61.39808032162239 53.2315210879172 96.16675856876714 C 0.0 **** -0.24
18257 H 61.72731134830468 54.209476154801706 96.51777417122383 H 0.0 **** 0.06
18258 H 61.58607554366063 52.487023492270765 96.94062630281394 H 0.0 **** 0.06
18259 H 61.94837635096934 52.96559447184781 95.263992564288 H 0.0 **** 0.06
18260 H 60.33201995567299 53.2663653348977 95.94574661237107 H 0.0 **** 0.06
18261 C 206.58340102565475 178.62713222464956 49.20006627163353 C 0.0 **** -0.24
18262 H 206.58000242193162 177.77514997126048 49.87931866356112 H 0.0 **** 0.06
18263 H 207.4974039161425 179.20306089157026 49.342663649054884 H 0.0 **** 0.06
18264 H 205.7190475303045 179.25929151193887 49.40486816848312 H 0.0 **** 0.06
18265 H 206.53605511392672 178.27069626461204 48.17082775871769 H 0.0 **** 0.06
18266 C 199.84736834441424 72.67102557530313 165.15195455097108 C 0.0 **** -0.24
18267 H 200.82075790217272 72.19257031000126 165.2612864721066 H 0.0 **** 0.06
18268 H 199.37802887164108 72.76470930157109 166.13132932988407 H 0.0 **** 0.06
18269 H 199.21580924490416 72.06547637843886 164.50226431473183 H 0.0 **** 0.06
18270 H 199.9762905145173 73.661181634353 164.71434376872006 H 0.0 **** 0.06
18271 C 138.8211789770359 152.82728625513067 106.76442177469023 C 0.0 **** -0.24
18272 H 137.83042036778414 152.67011667072234 107.19203989235045 H 0.0 **** 0.06
18273 H 139.30651158216335 153.66185425292963 107.27094488851016 H 0.0 **** 0.06
18274 H 138.72547364658988 153.05220915472654 105.70181821327377 H 0.0 **** 0.06
18275 H 139.41882397473137 151.92566806081095 106.89347681000974 H 0.0 **** 0.06
18276 C 102.35396076532584 167.3973008875652 212.74329655660637 C 0.0 **** -0.24
18277 H 101.84105668922166 166.78067405293078 213.48068171655478 H 0.0 **** 0.06
18278 H 101.87191239479705 167.28091537510107 211.77290853700785 H 0.0 **** 0.06
18279 H 103.39637295854106 167.08622171818809 212.67152808189445 H 0.0 **** 0.06
18280 H 102.30824511822914 168.44278687565463 213.0490747015749 H 0.0 **** 0.06
18281 C 20.894909913568455 60.109402089504385 104.75723000501318 C 0.0 **** -0.24
18282 H 21.87325913237119 60.03599041769411 104.28268847560662 H 0.0 **** 0.06
18283 H 20.526426129313123 59.109405986387344 104.98585334177619 H 0.0 **** 0.06
18284 H 20.199345271829074 60.60734349311468 104.08124676951417 H 0.0 **** 0.06
18285 H 20.980862332393755 60.685625459499306 105.67852905966703 H 0.0 **** 0.06
18286 C 54.583017883784805 28.585807584890944 69.97499274973366 C 0.0 **** -0.24
18287 H 53.770223037295295 29.312467514045494 69.97516928180777 H 0.0 **** 0.06
18288 H 55.04443211982857 28.55932026281529 68.98765518490107 H 0.0 **** 0.06
18289 H 54.18914756989747 27.599788539453897 70.21886512036333 H 0.0 **** 0.06
18290 H 55.327914484597784 28.87383142046916 70.71721675328693 H 0.0 **** 0.06
18291 C 38.78917144833764 145.27019238463527 84.58151280247908 C 0.0 **** -0.24
18292 H 38.802478026871825 144.9294842349666 83.54658912644315 H 0.0 **** 0.06
18293 H 38.005630503790485 146.01851089840352 84.70651740738718 H 0.0 **** 0.06
18294 H 39.75459539551457 145.70881843848105 84.83232331039089 H 0.0 **** 0.06
18295 H 38.59193187741637 144.42393778272077 85.2397284513195 H 0.0 **** 0.06
18296 C 122.69786908201682 126.05643828649632 176.5045253688554 C 0.0 **** -0.24
18297 H 122.56551324863933 126.96923282321718 175.92268585215123 H 0.0 **** 0.06
18298 H 122.87323777751674 125.21864491088301 175.82897208990653 H 0.0 **** 0.06
18299 H 121.80003483297928 125.86802020565462 177.09384993005517 H 0.0 **** 0.06
18300 H 123.55242767562792 126.17138035053235 177.17132674012186 H 0.0 **** 0.06
18301 C 35.230961658714136 129.8314829853556 170.74197173009804 C 0.0 **** -0.24
18302 H 34.57991995779891 129.25140278467336 170.08788014439256 H 0.0 **** 0.06
18303 H 36.271994733300204 129.60180824618436 170.5148422775338 H 0.0 **** 0.06
18304 H 35.02097805675102 129.57888076094486 171.781260976865 H 0.0 **** 0.06
18305 H 35.05101765373058 130.89500217791772 170.5830999931713 H 0.0 **** 0.06
18306 C 61.467970004290066 61.58238382474978 39.61461404804885 C 0.0 **** -0.24
18307 H 60.76535205877258 61.73738624784471 38.79578292413942 H 0.0 **** 0.06
18308 H 61.137394700063226 62.144363621104986 40.48771358507133 H 0.0 **** 0.06
18309 H 62.45779265560907 61.92530866226787 39.313529658480775 H 0.0 **** 0.06
18310 H 61.51003319335388 60.521032942534404 39.859944712714764 H 0.0 **** 0.06
18311 C 108.00792781077426 87.39742681100365 33.38671568186335 C 0.0 **** -0.24
18312 H 109.04582051010398 87.71529291546248 33.4856450507922 H 0.0 **** 0.06
18313 H 107.89935626180817 86.38478735377602 33.77621240736555 H 0.0 **** 0.06
18314 H 107.72169118728426 87.41419716662982 32.33449493084322 H 0.0 **** 0.06
18315 H 107.36514351652953 88.0741427722276 33.94900918332776 H 0.0 **** 0.06
18316 C 66.42111920917104 38.48479738705011 174.8115186080419 C 0.0 **** -0.24
18317 H 65.37755834734396 38.34024669975824 175.0922871497613 H 0.0 **** 0.06
18318 H 66.99643474356351 38.780221622699926 175.68898809210648 H 0.0 **** 0.06
18319 H 66.48795660194631 39.26474579217141 174.05299083283447 H 0.0 **** 0.06
18320 H 66.82070160528492 37.55323266689065 174.4103537756111 H 0.0 **** 0.06
18321 C 16.145956672571728 209.48848232015408 90.167998640318 C 0.0 **** -0.24
18322 H 15.210619187014998 209.80383595261227 90.63092738194258 H 0.0 **** 0.06
18323 H 16.07402301946297 209.60649392387285 89.0868811885854 H 0.0 **** 0.06
18324 H 16.334015478067897 208.4418781819495 90.40802948128082 H 0.0 **** 0.06
18325 H 16.96414180828573 210.10044240275707 90.54767623674506 H 0.0 **** 0.06
18326 C 190.57925384316906 1.242971462340904 0.8805371493196787 C 0.0 **** -0.24
18327 H 191.15203449980527 0.48988694956591416 0.340866745468702 H 0.0 **** 0.06
18328 H 190.22765263238327 2.0024589982053556 0.18049325866681443 H 0.0 **** 0.06
18329 H 191.21204127805635 1.7096164943520762 1.6356183481205449 H 0.0 **** 0.06
18330 H 189.7240712606549 0.7714501067420088 1.3640787586204794 H 0.0 **** 0.06
18331 C 171.1476756905877 31.269951719996925 172.87995966884642 C 0.0 **** -0.24
18332 H 170.71858451086328 32.06238345758908 172.2675490054439 H 0.0 **** 0.06
18333 H 171.69837672656067 31.711452435002457 173.71111587543908 H 0.0 **** 0.06
18334 H 171.8254331902405 30.667494411840835 172.27412873436984 H 0.0 **** 0.06
18335 H 170.34866950629322 30.637776496093238 173.26821957182506 H 0.0 **** 0.06
18336 C 100.78359039551269 159.4754346850582 12.234511401529645 C 0.0 **** -0.24
18337 H 100.03775827025315 159.89946021404967 11.56164370248554 H 0.0 **** 0.06
18338 H 101.6271696674536 160.16023778140686 12.318843251418244 H 0.0 **** 0.06
18339 H 101.1283096040148 158.5207796961749 11.836666378288754 H 0.0 **** 0.06
18340 H 100.3388840507166 159.32129242122713 13.217430807412441 H 0.0 **** 0.06
18341 C 108.83189467537396 17.803005700207024 12.245229131942779 C 0.0 **** -0.24
18342 H 109.30921381034612 18.7833383661643 12.23525621524874 H 0.0 **** 0.06
18343 H 107.77782258831111 17.910433113193932 11.990190869599815 H 0.0 **** 0.06
18344 H 108.92334525954679 17.36442206799842 13.238716584639008 H 0.0 **** 0.06
18345 H 109.31882632648016 17.155358945042977 11.516678261150844 H 0.0 **** 0.06
18346 C 162.01003106839676 69.6100851528439 52.346127658529866 C 0.0 **** -0.24
18347 H 161.20799182107783 70.34843823339581 52.321269522595856 H 0.0 **** 0.06
18348 H 162.62067130831974 69.70789285493585 51.44794599222273 H 0.0 **** 0.06
18349 H 161.5799747829858 68.60960008652967 52.38645569685646 H 0.0 **** 0.06
18350 H 162.62885390037323 69.77635240863147 53.22702414103058 H 0.0 **** 0.06
18351 C 103.8498684373043 73.4274239714842 87.32506386377322 C 0.0 **** -0.24
18352 H 103.6990964540547 74.34207421641925 86.75198195948145 H 0.0 **** 0.06
18353 H 104.12718418990086 72.61746638195926 86.6503040432009 H 0.0 **** 0.06
18354 H 102.92774439070546 73.16844493092351 87.84499292550036 H 0.0 **** 0.06
18355 H 104.64648611960503 73.58368586254998 88.05283074663659 H 0.0 **** 0.06
18356 C 34.928258060820895 95.10929533599769 136.23843628937652 C 0.0 **** -0.24
18357 H 34.49960582177363 96.08696383922604 136.46220339743127 H 0.0 **** 0.06
18358 H 34.28949703105346 94.3294817320862 136.65314489401544 H 0.0 **** 0.06
18359 H 35.922390271818074 95.03901545447481 136.68127490898456 H 0.0 **** 0.06
18360 H 35.00129298849305 94.98349661768357 135.15845772084725 H 0.0 **** 0.06
18361 C 51.411716611014924 178.15992487600414 154.16104524740194 C 0.0 **** -0.24
18362 H 52.484051795659354 178.070390129587 154.33543825618108 H 0.0 **** 0.06
18363 H 51.14439459891332 179.21312547725466 154.07085886097036 H 0.0 **** 0.06
18364 H 50.8696117142851 177.7182781496989 154.99797511807122 H 0.0 **** 0.06
18365 H 51.149101766929675 177.63764807484716 153.24159622393609 H 0.0 **** 0.06
18366 C 123.51546883721115 125.64223560395753 150.1362011232693 C 0.0 **** -0.24
18367 H 123.36706355770927 125.8148346827028 151.20274066231508 H 0.0 **** 0.06
18368 H 124.06994104429454 126.47750369861315 149.70800265941534 H 0.0 **** 0.06
18369 H 122.54640131147316 125.55818770042579 149.64368693291226 H 0.0 **** 0.06
18370 H 124.077954617375 124.72003137661697 149.99263846802876 H 0.0 **** 0.06
18371 C 88.72966967934764 80.3615409310783 174.543221884133 C 0.0 **** -0.24
18372 H 89.53932743061591 80.89179256834738 175.04485687876843 H 0.0 **** 0.06
18373 H 88.0691264027505 81.08114511460606 174.0595913076623 H 0.0 **** 0.06
18374 H 88.16549246240669 79.78375478720203 175.27453806545338 H 0.0 **** 0.06
18375 H 89.14650973998306 79.68928497301944 173.7925572148921 H 0.0 **** 0.06
18376 C 104.96639870017503 70.3226611243126 18.732438564320574 C 0.0 **** -0.24
18377 H 105.00085010157528 69.85510929847477 17.748726453371972 H 0.0 **** 0.06
18378 H 105.94782739695017 70.72861384774846 18.97645951979905 H 0.0 **** 0.06
18379 H 104.68378656138503 69.57919043061592 19.478197811453526 H 0.0 **** 0.06
18380 H 104.2314959584719 71.12798952200247 18.725859921155177 H 0.0 **** 0.06
18381 C 16.326837531683722 134.00272880821336 66.0702807084005 C 0.0 **** -0.24
18382 H 16.598657742822738 133.86429396703608 67.11730302173783 H 0.0 **** 0.06
18383 H 16.078858789056724 135.04955810764426 65.89618851988195 H 0.0 **** 0.06
18384 H 15.464051043463101 133.37988743890992 65.83461731044872 H 0.0 **** 0.06
18385 H 17.165935218363842 133.71686729163798 65.43631273154438 H 0.0 **** 0.06
18386 C 26.306601448986896 164.4204181467134 173.3143723194957 C 0.0 **** -0.24
18387 H 27.357560507557153 164.30944028581365 173.04676418421678 H 0.0 **** 0.06
18388 H 26.170121701551764 164.16449161004616 174.36481223384186 H 0.0 **** 0.06
18389 H 25.702586589521673 163.75585939608288 172.69585645958847 H 0.0 **** 0.06
18390 H 25.99749489146832 165.451825065896 173.14686999716616 H 0.0 **** 0.06
18391 C 52.224742069464526 102.2170156735961 125.64588172704968 C 0.0 **** -0.24
18392 H 52.88117180855136 103.0457694357449 125.37868638020193 H 0.0 **** 0.06
18393 H 52.8076974097645 101.43690731472707 126.13645605646654 H 0.0 **** 0.06
18394 H 51.762163783910864 101.81459005225635 124.74570449217457 H 0.0 **** 0.06
18395 H 51.44993263654737 102.57290421191611 126.32503916827064 H 0.0 **** 0.06
18396 C 123.0866817366474 99.63179164196062 188.26849184915636 C 0.0 **** -0.24
18397 H 123.71867741777918 100.42272912099939 188.6728339154375 H 0.0 **** 0.06
18398 H 122.12326875686772 100.05092383278743 187.97591229361578 H 0.0 **** 0.06
18399 H 122.9345373037897 98.86464498498758 189.0271018931066 H 0.0 **** 0.06
18400 H 123.57065374186458 99.19048524482291 187.39765209019646 H 0.0 **** 0.06
18401 C 16.98657351680754 24.328442068344003 59.488049185069855 C 0.0 **** -0.24
18402 H 17.15867623772067 23.271422237094555 59.2825817087446 H 0.0 **** 0.06
18403 H 16.242933118880472 24.71710364863452 58.79249957006965 H 0.0 **** 0.06
18404 H 17.91922737560327 24.878471685191982 59.368306488451054 H 0.0 **** 0.06
18405 H 16.624264968021805 24.444817379592536 60.50968241014232 H 0.0 **** 0.06
18406 C 47.63576434744698 146.83774814051935 55.07495330700088 C 0.0 **** -0.24
18407 H 47.39639418036779 147.89305429669696 54.947894424043156 H 0.0 **** 0.06
18408 H 46.77472472333085 146.23343002436275 54.78925325670312 H 0.0 **** 0.06
18409 H 47.88539054456305 146.64551607253327 56.11851630634142 H 0.0 **** 0.06
18410 H 48.48663136540665 146.58011564468035 54.44500415353782 H 0.0 **** 0.06
18411 C 83.38517516552218 53.189798107740344 88.71115320794746 C 0.0 **** -0.24
18412 H 83.86820203865972 54.16466776240907 88.77227866387847 H 0.0 **** 0.06
18413 H 82.44358858057211 53.284450787532904 88.16938044545753 H 0.0 **** 0.06
18414 H 83.19066081758058 52.81703434964578 89.71595590360077 H 0.0 **** 0.06
18415 H 84.03913775990077 52.49386693633326 88.18512005635529 H 0.0 **** 0.06
18416 C 159.63429289414796 157.05738418629187 95.59466861552498 C 0.0 **** -0.24
18417 H 160.3898033623235 157.33937964214653 94.86190288366409 H 0.0 **** 0.06
18418 H 160.04912118518524 157.15037851971778 96.59800538247679 H 0.0 **** 0.06
18419 H 159.3282805518864 156.02546655608887 95.4210552617278 H 0.0 **** 0.06
18420 H 158.76948372779447 157.71345247050186 95.49546856562522 H 0.0 **** 0.06
18421 C 82.4665095784215 11.765039776205697 156.9509082739242 C 0.0 **** -0.24
18422 H 82.59796637742676 12.407710735948115 157.82085612721346 H 0.0 **** 0.06
18423 H 82.52272597447006 12.366005603722272 156.04330212196817 H 0.0 **** 0.06
18424 H 81.49282281265818 11.276596417106475 157.00408088877776 H 0.0 **** 0.06
18425 H 83.25147722254667 11.009054616198625 156.93486553351426 H 0.0 **** 0.06
18426 C 117.87054476560304 174.07108236665613 18.659911967216004 C 0.0 **** -0.24
18427 H 117.19874292322065 174.49803697460993 19.40398600224289 H 0.0 **** 0.06
18428 H 117.96277279848739 174.75640292703355 17.81673709016978 H 0.0 **** 0.06
18429 H 117.46813290576473 173.11908222045577 18.311586575904727 H 0.0 **** 0.06
18430 H 118.85124821071001 173.9094243970846 19.106136767175144 H 0.0 **** 0.06
18431 C 42.27165149586841 45.968889973810306 143.20644905359507 C 0.0 **** -0.24
18432 H 42.167556835318805 45.77776369995762 142.13710101265707 H 0.0 **** 0.06
18433 H 42.9611350306709 46.7990648659341 143.3610169888176 H 0.0 **** 0.06
18434 H 42.6596324554007 45.07674060223762 143.69818619197383 H 0.0 **** 0.06
18435 H 41.298269592255 46.22122020128796 143.62611469245223 H 0.0 **** 0.06
18436 C 48.07938870942553 60.909259006833224 82.95914589887708 C 0.0 **** -0.24
18437 H 48.187544054438035 60.42310953592096 83.92910376534768 H 0.0 **** 0.06
18438 H 48.31762199454164 60.1970030126534 82.16838395067155 H 0.0 **** 0.06
18439 H 48.75881609372652 61.75864647049798 82.90100404757534 H 0.0 **** 0.06
18440 H 47.052481543281885 61.25562961602799 82.8389867368491 H 0.0 **** 0.06
18441 C 49.533500402976756 208.31401161193776 63.70944958510279 C 0.0 **** -0.24
18442 H 48.85702736967636 208.83695821426937 64.38585791718577 H 0.0 **** 0.06
18443 H 50.54995423704361 208.68121683896186 63.859186356544654 H 0.0 **** 0.06
18444 H 49.229117814404674 208.49448383478318 62.679260220854076 H 0.0 **** 0.06
18445 H 49.49914810109516 207.24475005242866 63.91674831328555 H 0.0 **** 0.06
18446 C 138.83434459852907 216.03802559812473 136.00922625890462 C 0.0 **** -0.24
18447 H 138.8884793233974 217.04397779798552 136.42391495946657 H 0.0 **** 0.06
18448 H 138.14981605523553 216.03065494967768 135.16083219435342 H 0.0 **** 0.06
18449 H 138.47428405707484 215.34854460877784 136.77320892792062 H 0.0 **** 0.06
18450 H 139.82611259791793 215.72787397619422 135.67853703732243 H 0.0 **** 0.06
18451 C 14.743405818443904 139.18248016706167 27.41236694934223 C 0.0 **** -0.24
18452 H 15.432186336810418 138.34735856287415 27.53832898251011 H 0.0 **** 0.06
18453 H 14.22812415835375 139.08662990555666 26.456107731195644 H 0.0 **** 0.06
18454 H 15.300996003210287 140.11890081980994 27.432755313092684 H 0.0 **** 0.06
18455 H 14.013671907675985 139.17679114224518 28.221950292101155 H 0.0 **** 0.06
18456 C 206.93336712550166 198.51847930885106 97.5751846985061 C 0.0 **** -0.24
18457 H 206.25469908347407 199.0163160440492 98.26684168629815 H 0.0 **** 0.06
18458 H 207.74860721644237 199.1948375405909 97.31639271794326 H 0.0 **** 0.06
18459 H 206.39110690613575 198.24064800097852 96.67146253271726 H 0.0 **** 0.06
18460 H 207.33930608900897 197.6227963324302 98.04482785217355 H 0.0 **** 0.06
18461 C 123.3203852164393 71.56731935874082 80.71465073495678 C 0.0 **** -0.24
18462 H 123.10243157838177 70.55354374358795 81.04872457292338 H 0.0 **** 0.06
18463 H 122.40505458168344 72.03352290393595 80.34798161171078 H 0.0 **** 0.06
18464 H 124.05755434906375 71.53416010599575 79.91227409377474 H 0.0 **** 0.06
18465 H 123.71626624459036 72.1474786404339 81.54835065727708 H 0.0 **** 0.06
18466 C 162.19291765992955 57.89759487789067 135.09512127575397 C 0.0 **** -0.24
18467 H 161.37702009835303 58.24295743557563 134.45930524224434 H 0.0 **** 0.06
18468 H 163.1084742052213 58.42750490532811 134.83088516003698 H 0.0 **** 0.06
18469 H 162.3372455045154 56.82637186419848 134.9489573534862 H 0.0 **** 0.06
18470 H 161.94712427510663 58.09154117342125 136.13874504294932 H 0.0 **** 0.06
18471 C 0.36307525746686053 1.801405516848007 187.06265831039752 C 0.0 **** -0.24
18472 H 1.2986816088158335 2.250768718344716 186.7280845156053 H 0.0 **** 0.06
18473 H 0.561928737237757 0.8067236533775031 187.4627788378219 H 0.0 **** 0.06
18474 H -0.32370748883415956 1.7244993417854744 186.22033769501041 H 0.0 **** 0.06
18475 H -0.08153000504086805 2.4235948272217342 187.83868198315895 H 0.0 **** 0.06
18476 C 66.9141538791352 17.68933435409849 153.53535057436437 C 0.0 **** -0.24
18477 H 66.93472160407627 17.229618621930285 154.52355731110322 H 0.0 **** 0.06
18478 H 66.96149618505737 18.77328713553112 153.63677640855536 H 0.0 **** 0.06
18479 H 65.99211346905689 17.411295622003138 153.0254671846003 H 0.0 **** 0.06
18480 H 67.76892126702258 17.340771307793148 152.95555263095724 H 0.0 **** 0.06
18481 C 89.39060141731024 214.90330346650114 154.42113963212222 C 0.0 **** -0.24
18482 H 89.80983077788547 215.80862900625846 153.9824249840019 H 0.0 **** 0.06
18483 H 88.84125480187824 215.1586098223463 155.32702653942562 H 0.0 **** 0.06
18484 H 90.19654688637557 214.21157145323784 154.66701941186562 H 0.0 **** 0.06
18485 H 88.7135997395704 214.43360852602035 153.70635815668754 H 0.0 **** 0.06
18486 C 8.21782065909008 112.62030394860354 56.27060173266739 C 0.0 **** -0.24
18487 H 8.543753703561038 113.22855137278911 55.42657041431977 H 0.0 **** 0.06
18488 H 8.944282981092272 111.82749875147256 56.448642595398496 H 0.0 **** 0.06
18489 H 7.245976561442262 112.18076631749129 56.04805546312474 H 0.0 **** 0.06
18490 H 8.13790779598014 113.24749371115679 57.1590059695929 H 0.0 **** 0.06
18491 C 156.07853904579667 193.7484616305518 119.77807417471969 C 0.0 **** -0.24
18492 H 156.22813243807184 194.16638474047517 118.78227889603285 H 0.0 **** 0.06
18493 H 156.8881451953958 193.05487787520832 120.00694227440208 H 0.0 **** 0.06
18494 H 155.12622615687258 193.220043448102 119.81159294920816 H 0.0 **** 0.06
18495 H 156.0733432658796 194.55405044100553 120.51241048153462 H 0.0 **** 0.06
18496 C 72.7043738150303 80.86282029439279 59.955884886235765 C 0.0 **** -0.24
18497 H 72.55528183079309 80.43077894319065 58.96645172338822 H 0.0 **** 0.06
18498 H 73.56048533996147 80.38745932966519 60.43479943949572 H 0.0 **** 0.06
18499 H 71.81229353971656 80.70109660529978 60.56078683157173 H 0.0 **** 0.06
18500 H 72.89002671369099 81.93327190234776 59.85952867940517 H 0.0 **** 0.06
18501 C 31.50692027312715 174.13209936347295 61.42660832537865 C 0.0 **** -0.24
18502 H 30.468492840054523 174.03334689353966 61.73966825331294 H 0.0 **** 0.06
18503 H 31.870492093933308 173.168488068035 61.06793025140064 H 0.0 **** 0.06
18504 H 32.11241439222448 174.457111922169 62.27302066857223 H 0.0 **** 0.06
18505 H 31.57743309248309 174.86815783954674 60.62575627972194 H 0.0 **** 0.06
18506 C 148.63328830590177 14.031063591298008 38.847465033353274 C 0.0 **** -0.24
18507 H 148.54035758238484 12.948075048924025 38.7609962574918 H 0.0 **** 0.06
18508 H 148.73117515039775 14.30438432586628 39.898778546468805 H 0.0 **** 0.06
18509 H 147.74462773704994 14.505516473790678 38.43033794905739 H 0.0 **** 0.06
18510 H 149.51457066063045 14.365154246902165 38.30067991351214 H 0.0 **** 0.06
18511 C 2.6929563375218137 191.80755550522844 108.03938315483447 C 0.0 **** -0.24
18512 H 3.1795448657566325 192.306388026001 108.87618887830206 H 0.0 **** 0.06
18513 H 1.991364630807098 192.4941485129385 107.56465031321596 H 0.0 **** 0.06
18514 H 2.1549473638428225 190.93164024442484 108.40101822769509 H 0.0 **** 0.06
18515 H 3.444823005257483 191.49834835707517 107.31377886979124 H 0.0 **** 0.06
18516 C 211.28071062776013 119.70736244197342 47.56422354358233 C 0.0 **** -0.24
18517 H 211.3301620214558 120.79413842973766 47.50801300406107 H 0.0 **** 0.06
18518 H 212.28188523651227 119.29115115094855 47.44876050000954 H 0.0 **** 0.06
18519 H 210.63727444825986 119.33248578279346 46.76796572234437 H 0.0 **** 0.06
18520 H 210.87243958578563 119.4110832743442 48.530289039181014 H 0.0 **** 0.06
18521 C 29.884910839456268 191.07903520709544 112.68942900688894 C 0.0 **** -0.24
18522 H 29.431487350420184 192.05320000080178 112.87404818423248 H 0.0 **** 0.06
18523 H 29.30733584234767 190.54659957383862 111.93438427969544 H 0.0 **** 0.06
18524 H 29.894798393285328 190.5029516860056 113.61446205608418 H 0.0 **** 0.06
18525 H 30.906667746203425 191.21688079661055 112.33544940746715 H 0.0 **** 0.06
18526 C 164.51740592171083 66.46063610608797 180.66811737953032 C 0.0 **** -0.24
18527 H 164.6796372113719 66.59391702900149 181.7369641010091 H 0.0 **** 0.06
18528 H 165.4192176814845 66.05379327923805 180.21222750716169 H 0.0 **** 0.06
18529 H 164.2814417383144 67.42287382859564 180.21366319447878 H 0.0 **** 0.06
18530 H 163.6871419791044 65.77149315855678 180.51061837508468 H 0.0 **** 0.06
18531 C 65.95949322418411 75.6350685056831 190.0894000245303 C 0.0 **** -0.24
18532 H 66.31282306187813 76.47700508372507 190.68491909649404 H 0.0 **** 0.06
18533 H 64.9927946222864 75.88133184654298 189.65063094019283 H 0.0 **** 0.06
18534 H 65.85759752865583 74.75670247557166 190.72595992301285 H 0.0 **** 0.06
18535 H 66.6764020065668 75.42670458238659 189.29502453710748 H 0.0 **** 0.06
18536 C 138.7937501768484 95.59685942394496 105.15998585629836 C 0.0 **** -0.24
18537 H 139.6423734462224 94.94823009167878 104.93914043759918 H 0.0 **** 0.06
18538 H 137.88901023969532 95.17114726171415 104.72512846474132 H 0.0 **** 0.06
18539 H 138.9727778817712 96.58465659076263 104.7337218555175 H 0.0 **** 0.06
18540 H 138.6741358794652 95.68281784916924 106.239546734378 H 0.0 **** 0.06
18541 C 8.687671158353055 93.19330406343505 197.69330334568951 C 0.0 **** -0.24
18542 H 7.670675720419638 92.8446617112304 197.87147437928385 H 0.0 **** 0.06
18543 H 9.303117730923816 92.36046742082732 197.3515391020884 H 0.0 **** 0.06
18544 H 9.101759728236459 93.59444221276863 198.6195662760153 H 0.0 **** 0.06
18545 H 8.675668398544985 93.97361809596407 196.93280412213048 H 0.0 **** 0.06
18546 C 13.769925290583643 104.23834645562836 29.130391549584786 C 0.0 **** -0.24
18547 H 13.270847908448985 103.27138780264984 29.060078802004483 H 0.0 **** 0.06
18548 H 13.114501410136668 105.01351900308997 28.73163194951664 H 0.0 **** 0.06
18549 H 14.694562663180406 104.21283646091767 28.554652816563674 H 0.0 **** 0.06
18550 H 13.99694585183515 104.45451008366415 30.174406918034435 H 0.0 **** 0.06
18551 C 108.74527905495 198.74620626295857 42.331606364562475 C 0.0 **** -0.24
18552 H 109.77131669083872 199.06555700658822 42.15371881641474 H 0.0 **** 0.06
18553 H 108.67153546459895 197.6669470647036 42.19544611347308 H 0.0 **** 0.06
18554 H 108.08148249526812 199.24615808314365 41.62594394606769 H 0.0 **** 0.06
18555 H 108.45456376707199 199.00583675538152 43.34932280745376 H 0.0 **** 0.06
18556 C 189.34989305268655 143.69300956528548 183.10938050662145 C 0.0 **** -0.24
18557 H 189.15354573064616 143.08193208375212 182.2280416456142 H 0.0 **** 0.06
18558 H 190.29750357642092 143.39174266977187 183.55493934133324 H 0.0 **** 0.06
18559 H 188.54648000225927 143.55595832058862 183.83269893736247 H 0.0 **** 0.06
18560 H 189.40191130921775 144.74236965684565 182.81810289659393 H 0.0 **** 0.06
18561 C 24.601963735855975 106.21021695462038 167.1006291093708 C 0.0 **** -0.24
18562 H 24.08719902689751 106.79919094505756 167.8610159207091 H 0.0 **** 0.06
18563 H 25.22225737822879 105.45549211889063 167.58443006213693 H 0.0 **** 0.06
18564 H 25.229367358485746 106.86578722572345 166.497025394537 H 0.0 **** 0.06
18565 H 23.865761878247838 105.72153492406481 166.46146570664388 H 0.0 **** 0.06
18566 C 104.30069949521415 33.91653103635281 12.366035484842541 C 0.0 **** -0.24
18567 H 103.84208510207422 34.66780495293516 11.723283220443193 H 0.0 **** 0.06
18568 H 105.37542784541596 34.08984197602702 12.416269135169387 H 0.0 **** 0.06
18569 H 104.11128513019928 32.92388987431893 11.956665395298444 H 0.0 **** 0.06
18570 H 103.8731862188841 33.98360943250195 13.36674874748087 H 0.0 **** 0.06
18571 C 91.80912594647663 141.19469368394277 18.122059241516865 C 0.0 **** -0.24
18572 H 91.54659436937044 141.68777370726133 19.05718991231575 H 0.0 **** 0.06
18573 H 92.84984138799973 140.8698886215535 18.16329290386659 H 0.0 **** 0.06
18574 H 91.67820950910169 141.89183466127355 17.293851237894387 H 0.0 **** 0.06
18575 H 91.16424539437293 140.3287938416487 17.97416514587269 H 0.0 **** 0.06
18576 C 104.53605311266055 90.56984218957727 104.94564221627995 C 0.0 **** -0.24
18577 H 104.723015617072 91.13931382455623 105.85580934819104 H 0.0 **** 0.06
18578 H 103.62370023124775 89.9844356109564 105.06455610630748 H 0.0 **** 0.06
18579 H 105.37556126935608 89.90173555563614 104.75637864915224 H 0.0 **** 0.06
18580 H 104.42059870629096 91.25537099348752 104.10578408251591 H 0.0 **** 0.06
18581 C 128.95637235087503 156.43696016486643 35.87985521733383 C 0.0 **** -0.24
18582 H 129.59531834002843 156.8241696427129 36.67348169029029 H 0.0 **** 0.06
18583 H 129.51986281062943 155.72852454542544 35.272583768254705 H 0.0 **** 0.06
18584 H 128.61547987403821 157.26211993314303 35.25359901345668 H 0.0 **** 0.06
18585 H 128.09440931671998 155.93521580220028 36.31993414654727 H 0.0 **** 0.06
18586 C 159.73173958400332 178.06748558700696 123.95056392172499 C 0.0 **** -0.24
18587 H 159.24971273476888 178.4782869034027 123.06367073498494 H 0.0 **** 0.06
18588 H 160.1322174646458 178.88016069201524 124.55673120901683 H 0.0 **** 0.06
18589 H 160.54364073429286 177.40499290152565 123.64888011822585 H 0.0 **** 0.06
18590 H 159.00238627602243 177.50550758902472 124.53285645747205 H 0.0 **** 0.06
18591 C 11.892617981329494 126.69328015867829 175.1334182143286 C 0.0 **** -0.24
18592 H 12.134534616242945 127.73480732909762 175.34707365206708 H 0.0 **** 0.06
18593 H 12.322749216615364 126.05459223471222 175.90435204990263 H 0.0 **** 0.06
18594 H 12.302678344033694 126.41820687051857 174.16142884720426 H 0.0 **** 0.06
18595 H 10.809215133580182 126.56799857481211 175.1197449914838 H 0.0 **** 0.06
18596 C 122.9349400471231 161.53650974224087 62.75802944486229 C 0.0 **** -0.24
18597 H 123.09334694910147 161.720033557556 61.69553031917496 H 0.0 **** 0.06
18598 H 123.06252258556957 162.4671043694359 63.31019831092189 H 0.0 **** 0.06
18599 H 123.65779578862681 160.80111202650215 63.11089189527263 H 0.0 **** 0.06
18600 H 121.92562384658554 161.15589637907243 62.91321773187555 H 0.0 **** 0.06
18601 C 60.41167252391568 168.56215679114246 191.4675457021267 C 0.0 **** -0.24
18602 H 59.498648082309444 168.84397749537658 191.99178571616198 H 0.0 **** 0.06
18603 H 60.59229885434269 169.26253955258514 190.65203221054415 H 0.0 **** 0.06
18604 H 60.30345192727782 167.55563826159894 191.0654836910891 H 0.0 **** 0.06
18605 H 61.25124116041786 168.5887705996786 192.162497753645 H 0.0 **** 0.06
18606 C 19.92977536734398 124.84179240632973 109.20457183544748 C 0.0 **** -0.24
18607 H 19.9861792853593 125.73720321221045 109.82304108470841 H 0.0 **** 0.06
18608 H 20.929925040160015 124.57753766698944 108.8568431319474 H 0.0 **** 0.06
18609 H 19.28549972954528 125.03288890888366 108.34686725242555 H 0.0 **** 0.06
18610 H 19.520407881198267 124.02018746343585 109.79120433787732 H 0.0 **** 0.06
18611 C 80.07328982683958 136.53209428078065 50.751838562708485 C 0.0 **** -0.24
18612 H 79.723862290233 137.31215638753082 51.42880285723504 H 0.0 **** 0.06
18613 H 79.9331951919292 135.55730071755312 51.219848340634655 H 0.0 **** 0.06
18614 H 81.13024867791711 136.68449870925093 50.53655969523584 H 0.0 **** 0.06
18615 H 79.50326949490756 136.5754845511592 49.82323624776086 H 0.0 **** 0.06
18616 C 187.26671622365853 80.95622420580791 80.6531838171062 C 0.0 **** -0.24
18617 H 186.65327293595894 80.08503621846761 80.42308826688782 H 0.0 **** 0.06
18618 H 187.8094118232906 81.26318020184029 79.75870036179788 H 0.0 **** 0.06
18619 H 187.9756063035994 80.70388729989939 81.44109882432969 H 0.0 **** 0.06
18620 H 186.6260736165931 81.77251750556557 80.9882128467325 H 0.0 **** 0.06
18621 C 84.53409927462451 153.57408217474 86.96638332203561 C 0.0 **** -0.24
18622 H 84.38104743397344 154.2981963803353 86.16551635067667 H 0.0 **** 0.06
18623 H 84.48130832006518 154.08144586519887 87.92970275963164 H 0.0 **** 0.06
18624 H 85.51254086766676 153.10820789800874 86.85314759973589 H 0.0 **** 0.06
18625 H 83.75861116757085 152.80860588625325 86.91636918759262 H 0.0 **** 0.06
18626 C 167.94483199010216 213.8944312465013 161.91518765536938 C 0.0 **** -0.24
18627 H 167.54904041999995 212.90038622825546 161.70671301975085 H 0.0 **** 0.06
18628 H 168.62973207580984 214.18608421582184 161.11987669074546 H 0.0 **** 0.06
18629 H 168.47664455168405 213.88089931106256 162.86715059688885 H 0.0 **** 0.06
18630 H 167.12303774870344 214.60786753856746 161.9684417901943 H 0.0 **** 0.06
18631 C 11.204854991413583 215.9858603341228 34.39243968695621 C 0.0 **** -0.24
18632 H 11.039056341379307 216.8026444223804 35.0956720208402 H 0.0 **** 0.06
18633 H 12.268942428323584 215.91371174022115 34.16466202089907 H 0.0 **** 0.06
18634 H 10.648215580920947 216.17685258282418 33.47608078930102 H 0.0 **** 0.06
18635 H 10.864104977660645 215.0509072010511 34.836769740563284 H 0.0 **** 0.06
18636 C 140.2392472842509 100.9416913019612 205.59709655969192 C 0.0 **** -0.24
18637 H 139.51927452461587 100.78437034505949 204.79417285634963 H 0.0 **** 0.06
18638 H 140.5939792689153 101.97216421773955 205.57041452518848 H 0.0 **** 0.06
18639 H 141.08234905568412 100.26254891089248 205.46633658826264 H 0.0 **** 0.06
18640 H 139.76137505850068 100.74548626534816 206.55703815179794 H 0.0 **** 0.06
18641 C 78.6821859538843 143.90367292230002 139.07638943128148 C 0.0 **** -0.24
18642 H 77.94564325468616 144.12732423258012 139.84776163108398 H 0.0 **** 0.06
18643 H 79.5940370573195 143.529246933654 139.54316336511096 H 0.0 **** 0.06
18644 H 78.9075613809681 144.8098503725509 138.5143418551009 H 0.0 **** 0.06
18645 H 78.28281680799415 143.14660997997572 138.40152194573045 H 0.0 **** 0.06
18646 C 147.9610169504163 54.42079720017483 39.671905148953 C 0.0 **** -0.24
18647 H 148.8628156521802 54.80447783818232 40.15001331877555 H 0.0 **** 0.06
18648 H 147.9578509749906 53.33187249197965 39.72491553649533 H 0.0 **** 0.06
18649 H 147.94188893409336 54.73422075505931 38.628229947199785 H 0.0 **** 0.06
18650 H 147.0836467535122 54.812539026110954 40.18512341748378 H 0.0 **** 0.06
18651 C 9.255191229675233 204.81213178890508 35.02522802412105 C 0.0 **** -0.24
18652 H 9.667655850176857 205.4665884029445 34.257436638944256 H 0.0 **** 0.06
18653 H 9.511933436327041 205.20164320567505 36.010920395613255 H 0.0 **** 0.06
18654 H 9.669435748371257 203.81096102872434 34.91032063478424 H 0.0 **** 0.06
18655 H 8.170608904227606 204.77018164421509 34.92217701032904 H 0.0 **** 0.06
18656 C 201.34332537833376 206.77282713433743 170.75212760985605 C 0.0 **** -0.24
18657 H 201.14291350386188 207.24281465590525 169.78954673608922 H 0.0 **** 0.06
18658 H 201.81099075107522 205.80138265918362 170.59203118098537 H 0.0 **** 0.06
18659 H 200.40685829181984 206.64109868642205 171.29395336144324 H 0.0 **** 0.06
18660 H 202.01320625644593 207.40814434652822 171.333080117142 H 0.0 **** 0.06
18661 C 113.11095839140476 143.08002160033055 23.065851200895622 C 0.0 **** -0.24
18662 H 114.15077186916686 143.14738953311456 23.38766426820868 H 0.0 **** 0.06
18663 H 113.0598423227754 142.5512299389021 22.113021889246255 H 0.0 **** 0.06
18664 H 112.70147862549167 144.08241081470612 22.948028066486373 H 0.0 **** 0.06
18665 H 112.5343563445095 142.53729796543985 23.814950842757398 H 0.0 **** 0.06
18666 C 195.87217663427782 92.12293100013126 149.830623407696 C 0.0 **** -0.24
18667 H 195.87879483878237 92.17388867604653 150.91990283437718 H 0.0 **** 0.06
18668 H 195.25684020653512 91.28182245844907 149.5106739668551 H 0.0 **** 0.06
18669 H 196.89129901533653 91.98639351598364 149.4686769653224 H 0.0 **** 0.06
18670 H 195.46306849438218 93.04869242286388 149.4266253303452 H 0.0 **** 0.06
18671 C 26.395745630252208 23.11163933645537 141.0002927826382 C 0.0 **** -0.24
18672 H 25.79142177132131 23.1257703918468 141.90746869065288 H 0.0 **** 0.06
18673 H 25.897633477537298 23.69288546699366 140.22388286055235 H 0.0 **** 0.06
18674 H 26.518269708769864 22.082327308198614 140.66254769650732 H 0.0 **** 0.06
18675 H 27.373655150320715 23.54459314154019 141.20828579090357 H 0.0 **** 0.06
18676 C 66.38065723123078 66.38226749786644 136.52123702043173 C 0.0 **** -0.24
18677 H 66.03435419034753 65.40735250671635 136.8642765223347 H 0.0 **** 0.06
18678 H 65.86138908729878 67.16676333576017 137.071342469123 H 0.0 **** 0.06
18679 H 66.17283303239256 66.48612612345704 135.45602876185382 H 0.0 **** 0.06
18680 H 67.4540475674568 66.4662673331201 136.69173732443784 H 0.0 **** 0.06
18681 C 134.10003076698268 205.24094946550838 1.148741853530197 C 0.0 **** -0.24
18682 H 134.27233039120398 204.16992108126405 1.0390277315483445 H 0.0 **** 0.06
18683 H 134.54504423555125 205.76865805474435 0.30512654075118917 H 0.0 **** 0.06
18684 H 134.55451866208017 205.58772297791225 2.076393732306684 H 0.0 **** 0.06
18685 H 133.02760252009261 205.43473846554267 1.174483241813391 H 0.0 **** 0.06
18686 C 13.535192054070876 160.63666810917715 114.39906656064177 C 0.0 **** -0.24
18687 H 12.74731765887995 161.3669804555197 114.2156327991059 H 0.0 **** 0.06
18688 H 14.432566285114433 161.15078315932834 114.74537186725625 H 0.0 **** 0.06
18689 H 13.756733718573685 160.10091079053728 113.47628949377462 H 0.0 **** 0.06
18690 H 13.205189454659774 159.92965602695034 115.16044579781051 H 0.0 **** 0.06
18691 C 20.57983563431104 146.32198588113607 14.756776489477929 C 0.0 **** -0.24
18692 H 21.015203748594175 145.50022047727958 15.325130568211492 H 0.0 **** 0.06
18693 H 20.890974336316177 146.247318474832 13.71469077947853 H 0.0 **** 0.06
18694 H 20.921229361677632 147.27039756592944 15.17091140255063 H 0.0 **** 0.06
18695 H 19.492579599666996 146.26934949738222 14.817446671125794 H 0.0 **** 0.06
18696 C 161.97534704028016 86.20101897523517 38.321135035038694 C 0.0 **** -0.24
18697 H 161.4004833880786 86.93324162050737 38.88812173295443 H 0.0 **** 0.06
18698 H 163.00621950928524 86.54415721476255 38.22682035533258 H 0.0 **** 0.06
18699 H 161.53885058616987 86.08462395217117 37.32958162424619 H 0.0 **** 0.06
18700 H 161.95658084201966 85.24328848764907 38.84172440130227 H 0.0 **** 0.06
18701 C 66.5691263127855 187.42037640077285 155.4461245941726 C 0.0 **** -0.24
18702 H 66.25728846945277 188.07298766508313 154.63070762542748 H 0.0 **** 0.06
18703 H 67.5931696226709 187.66244651541015 155.73290416023838 H 0.0 **** 0.06
18704 H 66.51899768773075 186.38188837622732 155.11979060932384 H 0.0 **** 0.06
18705 H 65.90875703282036 187.56592726261638 156.3008909329415 H 0.0 **** 0.06
18706 C 13.977566589262295 22.478159321861014 145.70298470964764 C 0.0 **** -0.24
18707 H 14.846406128885008 22.292248325871185 145.07188163850134 H 0.0 **** 0.06
18708 H 13.447831887988855 23.359479930317278 145.34150820076627 H 0.0 **** 0.06
18709 H 14.304494124438122 22.645156661686997 146.7292728810637 H 0.0 **** 0.06
18710 H 13.313001311652215 21.614563960207846 145.66861628452034 H 0.0 **** 0.06
18711 C 88.79902587716862 202.26352111540305 120.54300235360161 C 0.0 **** -0.24
18712 H 89.58931654619415 201.78220763643074 119.96537690395273 H 0.0 **** 0.06
18713 H 88.41792665802961 201.5650748567079 121.28881289643085 H 0.0 **** 0.06
18714 H 87.99099870819646 202.56031606056501 119.87539321078613 H 0.0 **** 0.06
18715 H 89.20098690741311 203.14499423638634 121.04233951471083 H 0.0 **** 0.06
18716 C 41.25772714140663 50.02994844012227 159.8094805062685 C 0.0 **** -0.24
18717 H 40.62464102266267 50.91794866393059 159.79374104486922 H 0.0 **** 0.06
18718 H 40.657341976694795 49.161096097054894 160.08230723771464 H 0.0 **** 0.06
18719 H 42.05542668246909 50.16566697281576 160.53925721557025 H 0.0 **** 0.06
18720 H 41.691072670010556 49.87712345423586 158.82062999791168 H 0.0 **** 0.06
18721 C 97.84091293095734 212.04770073698367 16.82408754725043 C 0.0 **** -0.24
18722 H 97.4562412131154 212.37562541146843 17.789399000087002 H 0.0 **** 0.06
18723 H 97.36934180574615 211.10403079687433 16.54722859565436 H 0.0 **** 0.06
18724 H 98.91982288048753 211.90916176100976 16.891410678510084 H 0.0 **** 0.06
18725 H 97.61663789469942 212.8007836534695 16.06929754375568 H 0.0 **** 0.06
18726 C 187.79811848675263 52.88501833515201 86.26643447413551 C 0.0 **** -0.24
18727 H 186.83552007004567 53.065666530442215 86.74491190881719 H 0.0 **** 0.06
18728 H 187.951606577371 53.61584165428647 85.47202662560858 H 0.0 **** 0.06
18729 H 187.8111798265023 51.881145153962066 85.84382100112384 H 0.0 **** 0.06
18730 H 188.59432139276902 52.979620362168575 87.00534552341213 H 0.0 **** 0.06
18731 C 0.2806988343325614 42.641893546801285 210.10592499810355 C 0.0 **** -0.24
18732 H -0.08043268754728672 41.89794782112979 209.39555965238984 H 0.0 **** 0.06
18733 H -0.5477166869085082 42.9833400961444 210.72615649143722 H 0.0 **** 0.06
18734 H 0.7017585011876193 43.48807333851407 209.563015564568 H 0.0 **** 0.06
18735 H 1.0491736715730582 42.197305539895154 210.73854816457444 H 0.0 **** 0.06
18736 C 196.36134337513533 177.21334146948232 8.713223730871448 C 0.0 **** -0.24
18737 H 196.91247933670292 176.51262798980264 9.340104023746534 H 0.0 **** 0.06
18738 H 195.29810027512684 177.1460841746034 8.941407178676457 H 0.0 **** 0.06
18739 H 196.5246171484603 176.96865845288428 7.66419178939293 H 0.0 **** 0.06
18740 H 196.711979718848 178.22686334270762 8.908604660729253 H 0.0 **** 0.06
18741 C 52.47473690496915 87.13101689045192 117.44124367219796 C 0.0 **** -0.24
18742 H 53.20512518944304 87.43838979055357 116.69253745632382 H 0.0 **** 0.06
18743 H 52.35672969776141 87.92359950455295 118.18040281727234 H 0.0 **** 0.06
18744 H 52.82044655651572 86.22235343727317 117.93355220657217 H 0.0 **** 0.06
18745 H 51.51697650760104 86.94018790462007 116.95718742045527 H 0.0 **** 0.06
18746 C 135.69875768466585 134.3113252999088 167.6957516208644 C 0.0 **** -0.24
18747 H 136.46726612178048 133.9324676606829 167.02239673783578 H 0.0 **** 0.06
18748 H 134.80409286768042 133.69504398804133 167.60887043175447 H 0.0 **** 0.06
18749 H 135.45900672119893 135.34133710385447 167.42989957081704 H 0.0 **** 0.06
18750 H 136.0648984981546 134.27734876118666 168.72221674386924 H 0.0 **** 0.06
18751 C 163.81360067329774 124.42145571869797 39.04597288436092 C 0.0 **** -0.24
18752 H 163.96260560053884 124.14377912139945 38.00308489630744 H 0.0 **** 0.06
18753 H 163.44448993218165 123.55964209062982 39.60200945564206 H 0.0 **** 0.06
18754 H 163.08751308235276 125.23170793098414 39.10540591284126 H 0.0 **** 0.06
18755 H 164.76136676839053 124.75006054627356 39.47303662879057 H 0.0 **** 0.06
18756 C 106.88431411138312 60.9882818881004 164.93783722766702 C 0.0 **** -0.24
18757 H 106.81308680515527 60.63037444452439 165.96527826308835 H 0.0 **** 0.06
18758 H 106.79637265846644 60.14437243124877 164.25259107518661 H 0.0 **** 0.06
18759 H 107.84791990208619 61.47738055888391 164.79034983561996 H 0.0 **** 0.06
18760 H 106.08183821148116 61.69883095612863 164.7437997017346 H 0.0 **** 0.06
18761 C 1.8509288075466088 168.9551484800699 59.24140689127216 C 0.0 **** -0.24
18762 H 0.8104431874373432 168.79962702659418 58.95850431622637 H 0.0 **** 0.06
18763 H 2.1357892428593175 168.2211595477856 59.9960961909361 H 0.0 **** 0.06
18764 H 1.9715345558314468 169.95961046275738 59.64747526014611 H 0.0 **** 0.06
18765 H 2.487126182009767 168.83941477620493 58.36358016710494 H 0.0 **** 0.06
18766 C 169.8575640287083 181.44354074389767 6.8678722969604 C 0.0 **** -0.24
18767 H 168.9905411202484 181.85209936176705 6.347674941959241 H 0.0 **** 0.06
18768 H 170.4122607217494 182.25496811468344 7.340357596616457 H 0.0 **** 0.06
18769 H 170.5005073589956 180.92983422048317 6.153789246501276 H 0.0 **** 0.06
18770 H 169.52384535423587 180.73907634398648 7.6299608072791045 H 0.0 **** 0.06
18771 C 53.592297990928216 25.184753690038562 150.47102604877688 C 0.0 **** -0.24
18772 H 53.49335856713611 26.094432571650543 149.87998084354524 H 0.0 **** 0.06
18773 H 54.29725098223952 24.509784868152835 149.98360678329374 H 0.0 **** 0.06
18774 H 52.62057303122799 24.697572377000412 150.55354945583366 H 0.0 **** 0.06
18775 H 53.958479159535045 25.43588741159084 151.46597193920928 H 0.0 **** 0.06
18776 C 18.357680826078308 42.65505953361338 42.33150767438828 C 0.0 **** -0.24
18777 H 17.99535005227341 42.22535499293798 43.26458137379733 H 0.0 **** 0.06
18778 H 18.781726443355694 41.86643058607223 41.709066630959526 H 0.0 **** 0.06
18779 H 19.124242580969963 43.39899350626115 42.54752492005248 H 0.0 **** 0.06
18780 H 17.530215103591246 43.12899602711934 41.80339895756424 H 0.0 **** 0.06
18781 C 48.470453434262055 20.174154934937235 177.31263111101015 C 0.0 **** -0.24
18782 H 48.90462926798068 19.625550606314107 178.1481302211584 H 0.0 **** 0.06
18783 H 47.71402660269234 20.86528982111463 177.68666878588715 H 0.0 **** 0.06
18784 H 48.009017328377666 19.471598277692607 176.61796859113156 H 0.0 **** 0.06
18785 H 49.25150552095573 20.733461026403376 176.79849060940677 H 0.0 **** 0.06
18786 C 53.59805032212799 212.04825460982653 210.93775085842327 C 0.0 **** -0.24
18787 H 54.5809805264457 212.46773315558463 210.7200236810654 H 0.0 **** 0.06
18788 H 53.032245257229704 211.9489115763447 210.0111901567114 H 0.0 **** 0.06
18789 H 53.0644689470348 212.7093353395797 211.62105849834683 H 0.0 **** 0.06
18790 H 53.7163963162579 211.0681840326133 211.3997876801738 H 0.0 **** 0.06
18791 C 205.78098650443218 59.86172928143945 126.29715751228672 C 0.0 **** -0.24
18792 H 205.75020097464747 58.853492917663374 126.71042839875749 H 0.0 **** 0.06
18793 H 206.7763712899472 60.282028714151394 126.4397465957508 H 0.0 **** 0.06
18794 H 205.0458426231653 60.485715719558385 126.80571089292447 H 0.0 **** 0.06
18795 H 205.55158123123238 59.82354566481038 125.2320784658883 H 0.0 **** 0.06
18796 C 144.2178953199919 20.792513376023024 174.91232114833895 C 0.0 **** -0.24
18797 H 143.33889575464838 20.150399600320597 174.86135262428508 H 0.0 **** 0.06
18798 H 143.90596487491064 21.82016360595324 175.1012035322252 H 0.0 **** 0.06
18799 H 144.75910096352135 20.743907096912864 173.96738410340737 H 0.0 **** 0.06
18800 H 144.86709541016893 20.455128487266705 175.7205765685323 H 0.0 **** 0.06
18801 C 29.754757028842846 42.01237383621151 86.77432450739157 C 0.0 **** -0.24
18802 H 29.224225411799807 41.088361724540306 86.54560426664845 H 0.0 **** 0.06
18803 H 29.99310678286554 42.53445719645916 85.84703139521501 H 0.0 **** 0.06
18804 H 30.676438197408174 41.77945746623794 87.30786825449242 H 0.0 **** 0.06
18805 H 29.12515120570484 42.64781598488719 87.39758924174062 H 0.0 **** 0.06
18806 C 29.29428822037808 102.7990624709111 156.66063242592827 C 0.0 **** -0.24
18807 H 29.92024454941881 103.69126951196402 156.6320769306323 H 0.0 **** 0.06
18808 H 28.24615433869188 103.08899406929207 156.57695926926448 H 0.0 **** 0.06
18809 H 29.452078027124344 102.27439314076192 157.60330820242496 H 0.0 **** 0.06
18810 H 29.557290730600712 102.14304161167202 155.8315935685104 H 0.0 **** 0.06
18811 C 122.13802346981497 117.05155984048183 46.97360909774892 C 0.0 **** -0.24
18812 H 122.67883929965946 116.64379282420508 47.82688772392696 H 0.0 **** 0.06
18813 H 122.52172271692056 118.04530235942379 46.740766135433546 H 0.0 **** 0.06
18814 H 121.07674384992116 117.11744696712485 47.21384563976848 H 0.0 **** 0.06
18815 H 122.27447223402346 116.39728377061435 46.11149615453874 H 0.0 **** 0.06
18816 C 107.60066795799072 36.189343776383424 37.6299578561956 C 0.0 **** -0.24
18817 H 106.67887863750018 36.04450713356489 38.192296643560326 H 0.0 **** 0.06
18818 H 108.2460783179525 36.88754442412032 38.16371386179179 H 0.0 **** 0.06
18819 H 107.36570721427056 36.592041016951825 36.64525307831525 H 0.0 **** 0.06
18820 H 108.11200766223969 35.23328253089679 37.51856784111507 H 0.0 **** 0.06
18821 C 184.2123912483442 34.53813592946091 30.544694970166006 C 0.0 **** -0.24
18822 H 184.0074745389254 35.42198163128303 31.150424355110772 H 0.0 **** 0.06
18823 H 184.5457975025649 33.725749724529734 31.190889267913064 H 0.0 **** 0.06
18824 H 184.99113112919977 34.76918097301008 29.817975960030708 H 0.0 **** 0.06
18825 H 183.303489283891 34.23826073125227 30.022190197892428 H 0.0 **** 0.06
18826 C 99.35312875740622 16.286236904410828 115.23829424413994 C 0.0 **** -0.24
18827 H 98.5946209438735 16.887016300069064 114.73702072421618 H 0.0 **** 0.06
18828 H 99.04700971768732 15.239666692782976 115.23653985372191 H 0.0 **** 0.06
18829 H 99.46753618124997 16.629911962179733 116.26677202580068 H 0.0 **** 0.06
18830 H 100.30265244358769 16.38800568836976 114.7134733141434 H 0.0 **** 0.06
18831 C 194.6672109638354 72.95946030256414 150.7941458816906 C 0.0 **** -0.24
18832 H 194.66520518464353 72.8130697749711 151.8745064398363 H 0.0 **** 0.06
18833 H 194.3838717348776 73.98708846754204 150.56610997244502 H 0.0 **** 0.06
18834 H 193.95581447665796 72.27472975623584 150.33295476539814 H 0.0 **** 0.06
18835 H 195.6667352923005 72.76279146587672 150.40349173793282 H 0.0 **** 0.06
18836 C 87.5979313290104 160.57305655136193 90.41269120355265 C 0.0 **** -0.24
18837 H 87.00406907656323 160.5408588239994 91.3259956782946 H 0.0 **** 0.06
18838 H 87.44718563461673 159.65133547805237 89.8504206805333 H 0.0 **** 0.06
18839 H 88.65304078668463 160.6741447436376 90.66970165188089 H 0.0 **** 0.06
18840 H 87.2877801672614 161.4238779854017 89.80684694587545 H 0.0 **** 0.06
18841 C 104.6796776154198 95.30137792551902 113.76102234070883 C 0.0 **** -0.24
18842 H 105.659237763647 95.5191832396974 113.33405405415259 H 0.0 **** 0.06
18843 H 104.32181609767694 96.17172747447258 114.31142759184463 H 0.0 **** 0.06
18844 H 104.76109100257229 94.45052235294399 114.43776143327788 H 0.0 **** 0.06
18845 H 103.98010778619478 95.06296324006287 112.9603890825547 H 0.0 **** 0.06
18846 C 26.86838521671325 51.81013722201311 13.509813889005898 C 0.0 **** -0.24
18847 H 26.990502112735612 50.746314196600906 13.30729682005142 H 0.0 **** 0.06
18848 H 27.492019657363528 52.38427701760503 12.823984660963276 H 0.0 **** 0.06
18849 H 27.168999854937567 52.02010492390383 14.536336437141898 H 0.0 **** 0.06
18850 H 25.82456026715957 52.08860539545486 13.372631342816703 H 0.0 **** 0.06
18851 C 107.21626632294607 39.8325633029707 195.31329163189844 C 0.0 **** -0.24
18852 H 106.1852512493312 39.5123559337182 195.4590492139808 H 0.0 **** 0.06
18853 H 107.89215341158337 39.04385868253854 195.64516482651146 H 0.0 **** 0.06
18854 H 107.40041981598233 40.736823563897076 195.8929605028177 H 0.0 **** 0.06
18855 H 107.38675422271524 40.03792029651305 194.2565075874171 H 0.0 **** 0.06
18856 C 69.90333967886795 77.01865182855504 138.41262898108317 C 0.0 **** -0.24
18857 H 70.11710199801377 77.9464671859423 138.94493481458937 H 0.0 **** 0.06
18858 H 68.87848457172211 76.70877057561147 138.62164282739548 H 0.0 **** 0.06
18859 H 70.59325745785986 76.24264841288318 138.743904229954 H 0.0 **** 0.06
18860 H 70.023822689334 77.17962910445168 137.34178479020687 H 0.0 **** 0.06
18861 C 80.85238727406801 184.43820377096537 23.0368157831158 C 0.0 **** -0.24
18862 H 80.42613520272965 184.35385183868 22.036182936741056 H 0.0 **** 0.06
18863 H 81.89983160910504 184.13802005598396 23.010203070489553 H 0.0 **** 0.06
18864 H 80.30455309675449 183.78863841152807 23.720055644164617 H 0.0 **** 0.06
18865 H 80.77685562221393 185.47043666289346 23.377857354136324 H 0.0 **** 0.06
18866 C 79.52053862887063 199.7057815309244 121.30452493658744 C 0.0 **** -0.24
18867 H 80.17455601804438 199.47191460051778 120.46487939297712 H 0.0 **** 0.06
18868 H 80.0835210657015 200.24984314261624 122.06376198589372 H 0.0 **** 0.06
18869 H 79.13310496862648 198.78118136935726 121.73229921672147 H 0.0 **** 0.06
18870 H 78.69021414304827 200.32138071620977 120.95715187435549 H 0.0 **** 0.06
18871 C 125.95790281651635 23.119938608552133 204.58279401450997 C 0.0 **** -0.24
18872 H 126.07963329250954 23.037246992831086 205.66288656941865 H 0.0 **** 0.06
18873 H 126.76659930232974 22.584311905414538 204.08442047484834 H 0.0 **** 0.06
18874 H 125.98533046698215 24.170624646422752 204.2940645395289 H 0.0 **** 0.06
18875 H 125.00105677423481 22.687537372846407 204.29121220790196 H 0.0 **** 0.06
18876 C 18.934380766645262 192.04269394465956 142.0350590578014 C 0.0 **** -0.24
18877 H 18.057968008465252 192.2721263741876 141.4281607215538 H 0.0 **** 0.06
18878 H 19.47085061433947 191.2031843433686 141.59301622457286 H 0.0 **** 0.06
18879 H 18.617907773695663 191.78138863148615 143.04515535288408 H 0.0 **** 0.06
18880 H 19.587446893522355 192.91411613686148 142.07257065027488 H 0.0 **** 0.06
18881 C 208.85522722779382 156.8891108059192 29.01376508962693 C 0.0 **** -0.24
18882 H 208.07277436656233 157.32977410866943 29.63200413665149 H 0.0 **** 0.06
18883 H 208.9788957144576 157.48186402156784 28.107600169743677 H 0.0 **** 0.06
18884 H 208.57741676962652 155.86990078633568 28.74712412429595 H 0.0 **** 0.06
18885 H 209.7924667081352 156.87591559421782 29.570219204314768 H 0.0 **** 0.06
18886 C 95.55567015543606 159.92020152897834 195.4603830814134 C 0.0 **** -0.24
18887 H 95.76495916982346 159.28286602527544 194.60134018475105 H 0.0 **** 0.06
18888 H 96.44800638000454 159.99341688098494 196.08321591264945 H 0.0 **** 0.06
18889 H 94.74119168509417 159.4890632980497 196.04259849344368 H 0.0 **** 0.06
18890 H 95.27045999483188 160.91347886483476 195.11552888886388 H 0.0 **** 0.06
18891 C 59.033112062110646 193.12978165979484 36.83827331616314 C 0.0 **** -0.24
18892 H 59.31232169873962 193.42350077651588 35.826439241406206 H 0.0 **** 0.06
18893 H 58.9718069465917 192.04266060184642 36.89561124413018 H 0.0 **** 0.06
18894 H 58.06489436354552 193.56209357738183 37.087933097595226 H 0.0 **** 0.06
18895 H 59.78444890905264 193.48849820879735 37.5412878998618 H 0.0 **** 0.06
18896 C 134.01538370388067 30.42284619404279 165.80197782456253 C 0.0 **** -0.24
18897 H 135.0674292450903 30.137154669111936 165.82699150965823 H 0.0 **** 0.06
18898 H 133.5266949290883 30.087282691720503 166.71681691323323 H 0.0 **** 0.06
18899 H 133.5335896907277 29.959306055842404 164.94185040144873 H 0.0 **** 0.06
18900 H 133.9346388984086 31.507114008055964 165.72368527281913 H 0.0 **** 0.06
18901 C 139.47752906654506 89.56098318469769 198.38061981756692 C 0.0 **** -0.24
18902 H 138.90366101039666 90.3572475117442 198.8545899755773 H 0.0 **** 0.06
18903 H 138.80426671878502 88.75770113508311 198.0809034497778 H 0.0 **** 0.06
18904 H 140.2145293510241 89.17573712519022 199.08567456782743 H 0.0 **** 0.06
18905 H 139.9876318843892 89.95489735253243 197.50078636536287 H 0.0 **** 0.06
18906 C 152.78882194236195 45.280238128864426 71.32705577316874 C 0.0 **** -0.24
18907 H 153.2323817717301 45.402334294284344 72.31598517751534 H 0.0 **** 0.06
18908 H 153.5391350237049 45.49020442645687 70.56468737587589 H 0.0 **** 0.06
18909 H 151.95374879051013 45.97121776217432 71.21576292282718 H 0.0 **** 0.06
18910 H 152.43246628338113 44.25604349011883 71.21417471554976 H 0.0 **** 0.06
18911 C 100.86144173330395 215.98795761809183 35.48096331101493 C 0.0 **** -0.24
18912 H 101.52279526610907 216.18189940492667 34.635223243676705 H 0.0 **** 0.06
18913 H 101.41746022380993 216.10521432361531 36.41104633820845 H 0.0 **** 0.06
18914 H 100.47502822101667 214.9712405909436 35.41349322836163 H 0.0 **** 0.06
18915 H 100.03185317448988 216.6947411589919 35.46196366958628 H 0.0 **** 0.06
18916 C 104.35466276331131 143.31458370413816 136.3189969387077 C 0.0 **** -0.24
18917 H 104.4370179900326 144.32498223753748 136.72053469640366 H 0.0 **** 0.06
18918 H 103.3502406224517 142.9324020494454 136.5014318154063 H 0.0 **** 0.06
18919 H 105.08379103269586 142.66856132081995 136.80797667572864 H 0.0 **** 0.06
18920 H 104.54745950366232 143.33375526081176 135.24638190807178 H 0.0 **** 0.06
18921 C 175.26256629950177 124.4077162805206 104.25107292898188 C 0.0 **** -0.24
18922 H 174.98657693423394 125.4622138479504 104.23985286241437 H 0.0 **** 0.06
18923 H 176.0072881626536 124.21961927343362 103.47804253497638 H 0.0 **** 0.06
18924 H 174.37831377805634 123.80016576139936 104.0612731298345 H 0.0 **** 0.06
18925 H 175.67728445867982 124.15157195220526 105.22614116891747 H 0.0 **** 0.06
18926 C 132.9523632583871 117.24500864834629 20.313794606890724 C 0.0 **** -0.24
18927 H 132.3578081866042 117.7640739084435 21.065260940776994 H 0.0 **** 0.06
18928 H 132.59092068826328 116.22223076312481 20.20768239973978 H 0.0 **** 0.06
18929 H 133.99756147251787 117.23135537766824 20.622994251460142 H 0.0 **** 0.06
18930 H 132.86292157090406 117.76297041457512 19.358474794584794 H 0.0 **** 0.06
18931 C 81.099123809356 87.7149550074696 141.50511635629476 C 0.0 **** -0.24
18932 H 81.0845386329865 88.32349807359242 142.4099366507158 H 0.0 **** 0.06
18933 H 80.71077875061536 86.72173282230807 141.7299695057618 H 0.0 **** 0.06
18934 H 82.12318499992267 87.63149032185765 141.14094268334105 H 0.0 **** 0.06
18935 H 80.47932731871049 88.18385606455104 140.74152600257975 H 0.0 **** 0.06
18936 C 27.9232607992476 49.15883359253438 173.28512109130384 C 0.0 **** -0.24
18937 H 28.544117357133956 49.50429338446567 172.4578540113675 H 0.0 **** 0.06
18938 H 27.178688517340532 48.45629472252058 172.9099619253393 H 0.0 **** 0.06
18939 H 27.421660388688963 50.012042905586554 173.7421878690214 H 0.0 **** 0.06
18940 H 28.54876380888993 48.66461885321252 174.02743159663555 H 0.0 **** 0.06
18941 C 160.45021483392554 171.71416264908396 68.60812476323417 C 0.0 **** -0.24
18942 H 160.46429901087873 170.64150465872976 68.80288261002477 H 0.0 **** 0.06
18943 H 160.09087148197546 171.89428682729672 67.59493831801495 H 0.0 **** 0.06
18944 H 161.4585502505053 172.11478854488197 68.71214262346683 H 0.0 **** 0.06
18945 H 159.78888111656613 172.20333490277923 69.32184272033618 H 0.0 **** 0.06
18946 C 126.14519784608046 70.14362042120524 120.74512789813154 C 0.0 **** -0.24
18947 H 127.1357182200353 69.76956351599591 120.48766733008144 H 0.0 **** 0.06
18948 H 125.57776108319433 69.35685334877792 121.24342826002162 H 0.0 **** 0.06
18949 H 125.62467242447815 70.44852561931418 119.83741911333378 H 0.0 **** 0.06
18950 H 126.2428518860873 71.00048789437426 121.41223131599601 H 0.0 **** 0.06
18951 C 56.94084606605438 70.92598066501387 171.8838200431603 C 0.0 **** -0.24
18952 H 57.8814044302451 71.4720706537189 171.81776090580087 H 0.0 **** 0.06
18953 H 56.69758150998075 70.74694141992518 172.9306798355692 H 0.0 **** 0.06
18954 H 57.03835900200286 69.97224958567739 171.3650470729956 H 0.0 **** 0.06
18955 H 56.1468812231856 71.51235023160581 171.42031091446293 H 0.0 **** 0.06
18956 C 89.28237275913976 201.10066851014324 66.85714444558164 C 0.0 **** -0.24
18957 H 88.76978143596108 200.16005325792548 66.65371821155281 H 0.0 **** 0.06
18958 H 88.56038508068985 201.83944314181215 67.20547040961611 H 0.0 **** 0.06
18959 H 89.75764615694736 201.45921789017285 65.94452696673335 H 0.0 **** 0.06
18960 H 90.04022986788651 200.9424863436576 67.6235465061971 H 0.0 **** 0.06
18961 C 18.50068244690533 24.929331933728037 179.5165523517469 C 0.0 **** -0.24
18962 H 18.134032242021334 25.433327381464096 178.6215091253892 H 0.0 **** 0.06
18963 H 18.735302660781485 23.891340576050766 179.27823228741767 H 0.0 **** 0.06
18964 H 17.734921426858307 24.96225315309961 180.29061137106265 H 0.0 **** 0.06
18965 H 19.400198632024512 25.432397925467797 179.8731997958028 H 0.0 **** 0.06
18966 C 136.41880644482399 194.60133723749567 83.39912571457273 C 0.0 **** -0.24
18967 H 136.2414021873418 195.58728845142323 82.9702736895145 H 0.0 **** 0.06
18968 H 136.3359194435588 194.65832907221653 84.48517950622687 H 0.0 **** 0.06
18969 H 137.418091296189 194.2613143080228 83.12798862171451 H 0.0 **** 0.06
18970 H 135.67835669311808 193.89901087834997 83.01465073718379 H 0.0 **** 0.06
18971 C 143.46909344674054 74.5620862565276 98.25782594889104 C 0.0 **** -0.24
18972 H 144.28819569872428 75.19479913340348 98.60117572758536 H 0.0 **** 0.06
18973 H 143.0626831662558 74.00464726734117 99.10245936903915 H 0.0 **** 0.06
18974 H 143.83853655025314 73.86583074008422 97.5056496613373 H 0.0 **** 0.06
18975 H 142.6877080251416 75.18554417948411 97.82453025386481 H 0.0 **** 0.06
18976 C 38.76565997190964 20.79436218696327 165.15567435064224 C 0.0 **** -0.24
18977 H 39.717822814295744 20.284227650790882 165.2972857659668 H 0.0 **** 0.06
18978 H 38.78568639223025 21.344747410307207 164.21410055358476 H 0.0 **** 0.06
18979 H 38.59868618677355 21.488980112368267 165.97974707353993 H 0.0 **** 0.06
18980 H 37.9605198741712 20.060344725181352 165.1304371136954 H 0.0 **** 0.06
18981 C 121.03262061254532 150.70116863969548 120.83092071809779 C 0.0 **** -0.24
18982 H 120.63633288424126 149.69967044588094 120.99980987909095 H 0.0 **** 0.06
18983 H 121.68842235437421 150.690382189721 119.96078115942561 H 0.0 **** 0.06
18984 H 121.59536238766674 151.02156598576533 121.7069408941228 H 0.0 **** 0.06
18985 H 120.20794681946074 151.3932575470128 120.65648666255248 H 0.0 **** 0.06
18986 C 139.38805949464603 107.13001132090243 90.05375462825403 C 0.0 **** -0.24
18987 H 139.50662887000345 107.47034160679159 89.0257513635775 H 0.0 **** 0.06
18988 H 140.14417421245258 106.37762752199122 90.2764433731128 H 0.0 **** 0.06
18989 H 138.39580090654266 106.69687612385103 90.18045480321895 H 0.0 **** 0.06
18990 H 139.50437908589907 107.97520129307541 90.73171686188714 H 0.0 **** 0.06
18991 C 81.48244599179634 70.16384468653223 7.8396945579951876 C 0.0 **** -0.24
18992 H 80.4672267207452 70.52080908874478 8.010923563181066 H 0.0 **** 0.06
18993 H 81.6095090416294 69.92198248720524 6.784729257168195 H 0.0 **** 0.06
18994 H 81.66093633463367 69.27176598258245 8.441248333090542 H 0.0 **** 0.06
18995 H 82.19256800411904 70.94130379529298 8.123125703999605 H 0.0 **** 0.06
18996 C 156.7467771982541 61.55280793864313 72.33121816307268 C 0.0 **** -0.24
18997 H 156.00814362406663 60.7544459588803 72.40274947510177 H 0.0 **** 0.06
18998 H 157.33224254439295 61.42616626073669 71.41985140238215 H 0.0 **** 0.06
18999 H 157.4083555417821 61.51470266193934 73.1965378824625 H 0.0 **** 0.06
19000 H 156.23822936675447 62.51729077421453 72.30542817402177 H 0.0 **** 0.06
19001 C 34.28584035454921 184.60371322962325 83.77289764128255 C 0.0 **** -0.24
19002 H 35.03839940650779 184.21789218066755 84.46141063873483 H 0.0 **** 0.06
19003 H 34.545906396805236 184.3184561818042 82.75351537356579 H 0.0 **** 0.06
19004 H 34.248233735422176 185.69055822536987 83.84837504291983 H 0.0 **** 0.06
19005 H 33.31182068916168 184.1874485362181 84.0304700331447 H 0.0 **** 0.06
19006 C 216.57601113513144 12.114121751101493 167.45189790751323 C 0.0 **** -0.24
19007 H 216.36469631031633 12.935089258539762 168.13655002438088 H 0.0 **** 0.06
19008 H 217.01048107112413 12.510022221902602 166.53322231095524 H 0.0 **** 0.06
19009 H 215.65047060381008 11.587604529091735 167.2193716223817 H 0.0 **** 0.06
19010 H 217.27933553982945 11.424082823515732 167.9185928889067 H 0.0 **** 0.06
19011 C 146.08653540815538 197.87691082979853 96.15152430348245 C 0.0 **** -0.24
19012 H 146.6641960001449 197.32556279703817 96.89352681445898 H 0.0 **** 0.06
19013 H 145.13034203134703 197.37767482841733 95.99159996215882 H 0.0 **** 0.06
19014 H 146.64026787420642 197.91121148845684 95.21220061497077 H 0.0 **** 0.06
19015 H 145.91209128468023 198.89125207035545 96.50748244279465 H 0.0 **** 0.06
19016 C 203.60588860194352 162.61839406439972 176.1060562949739 C 0.0 **** -0.24
19017 H 203.3560709873451 162.42668740138538 177.1495570619279 H 0.0 **** 0.06
19018 H 202.86533283374257 162.14309442270067 175.46230047753176 H 0.0 **** 0.06
19019 H 204.59340570663636 162.21157485530034 175.88811539199054 H 0.0 **** 0.06
19020 H 203.6087781991509 163.6939828394035 175.925195576387 H 0.0 **** 0.06
19021 C 11.547430341197895 57.23146586961511 174.74876649791076 C 0.0 **** -0.24
19022 H 11.955879891350818 56.819597270558944 173.8257608836815 H 0.0 **** 0.06
19023 H 10.80002870990512 56.547996480955405 175.15143947848313 H 0.0 **** 0.06
19024 H 11.084673290311201 58.195928554512975 174.54179364424914 H 0.0 **** 0.06
19025 H 12.350139305126831 57.361800042182935 175.47442651204062 H 0.0 **** 0.06
19026 C 127.70637707662188 47.994507144344254 44.672604418877484 C 0.0 **** -0.24
19027 H 127.34320155604526 48.288728895060615 45.6575781486618 H 0.0 **** 0.06
19028 H 127.3268659629776 47.00280570590684 44.427995148284424 H 0.0 **** 0.06
19029 H 128.79623056525116 47.97565859264432 44.67837011157059 H 0.0 **** 0.06
19030 H 127.35929709959159 48.711680466529145 43.928771741505955 H 0.0 **** 0.06
19031 C 183.63614452133504 192.80475687071413 195.14046932550394 C 0.0 **** -0.24
19032 H 184.61547663600095 193.268488276332 195.25394580262468 H 0.0 **** 0.06
19033 H 183.7611728457785 191.75069692025312 194.88978087424834 H 0.0 **** 0.06
19034 H 183.0881878839945 193.3057532947598 194.34256003232593 H 0.0 **** 0.06
19035 H 183.08167618770312 192.8935621681665 196.07460241014252 H 0.0 **** 0.06
19036 C 133.18255384574667 75.54149513901355 35.406890125715506 C 0.0 **** -0.24
19037 H 132.73288832055073 74.64061608150867 35.82359141480504 H 0.0 **** 0.06
19038 H 133.25189743205323 75.44514405999682 34.32266270522223 H 0.0 **** 0.06
19039 H 134.1806496777246 75.67666115456886 35.82476452278422 H 0.0 **** 0.06
19040 H 132.56496562832206 76.40482649855467 35.65594213941557 H 0.0 **** 0.06
19041 C 79.13116774699398 202.090311306745 68.15464864785106 C 0.0 **** -0.24
19042 H 79.8764848156253 202.8328972761987 68.43717237948138 H 0.0 **** 0.06
19043 H 79.59185104034196 201.1022821887789 68.13832345196974 H 0.0 **** 0.06
19044 H 78.74165707581295 202.3257130592264 67.16384059327676 H 0.0 **** 0.06
19045 H 78.31613685253421 202.09970045014416 68.87769401690987 H 0.0 **** 0.06
19046 C 184.0674383729845 117.72779429119983 11.20941829066777 C 0.0 **** -0.24
19047 H 184.91544007998954 117.38566523516782 11.801951780214438 H 0.0 **** 0.06
19048 H 184.40015337584265 118.49056580457243 10.505908183564202 H 0.0 **** 0.06
19049 H 183.30900473092737 118.14865164613981 11.87065324058534 H 0.0 **** 0.06
19050 H 183.6440285413941 116.88675173692029 10.6612863214433 H 0.0 **** 0.06
19051 C 15.168037521007136 7.73418828699775 59.834111999432025 C 0.0 **** -0.24
19052 H 14.812514145896671 7.727314246520848 60.86454395555998 H 0.0 **** 0.06
19053 H 15.175047053546933 8.758272823132586 59.46045992698235 H 0.0 **** 0.06
19054 H 14.5061956374702 7.126266373856822 59.21746104361786 H 0.0 **** 0.06
19055 H 16.1783948055333 7.326651026470643 59.79537337858562 H 0.0 **** 0.06
19056 C 175.27417058848863 68.61299562456982 42.120088737786915 C 0.0 **** -0.24
19057 H 176.3176043886006 68.30402968423608 42.0653340661311 H 0.0 **** 0.06
19058 H 174.64008148175998 67.82503388585376 41.71300097159809 H 0.0 **** 0.06
19059 H 175.1347436859608 69.52721332935728 41.541906856430444 H 0.0 **** 0.06
19060 H 175.00432269025862 68.79708680192915 43.16040873742975 H 0.0 **** 0.06
19061 C 7.922817552893491 2.7490944931898014 35.17831334960165 C 0.0 **** -0.24
19062 H 8.622978660938813 2.059975932082793 35.651176097618034 H 0.0 **** 0.06
19063 H 7.718775044315592 3.5794837560645902 35.85412801362712 H 0.0 **** 0.06
19064 H 6.9938888398477985 2.2251963630189806 34.95599756090374 H 0.0 **** 0.06
19065 H 8.356852689028983 3.1297841494283603 34.254129920064784 H 0.0 **** 0.06
19066 C 157.37182888178825 113.64487732688475 43.195765516832836 C 0.0 **** -0.24
19067 H 158.04664397566177 114.02309968172294 42.42868693246507 H 0.0 **** 0.06
19068 H 157.9045792356166 113.56967311537953 44.14388973289232 H 0.0 **** 0.06
19069 H 157.006304133009 112.65981796367139 42.90465925505309 H 0.0 **** 0.06
19070 H 156.52888451969136 114.32649645315674 43.305898581734894 H 0.0 **** 0.06
19071 C 205.24914364651954 196.71319199761467 81.08319442862462 C 0.0 **** -0.24
19072 H 204.95697084098208 196.29779148710531 82.04677347338396 H 0.0 **** 0.06
19073 H 204.73059546852292 196.18119636671403 80.2853225219968 H 0.0 **** 0.06
19074 H 206.3264796109942 196.60415878564595 80.95146688652501 H 0.0 **** 0.06
19075 H 204.98437920431562 197.77049857389798 81.04787092483782 H 0.0 **** 0.06
19076 C 23.246480062105775 111.79498772745212 26.190463233574178 C 0.0 **** -0.24
19077 H 22.354915509771104 112.08110938730697 26.74831462855127 H 0.0 **** 0.06
19078 H 22.953064211309766 111.34559970900806 25.242138567917138 H 0.0 **** 0.06
19079 H 23.82352467050856 111.07492881770459 26.771369281808234 H 0.0 **** 0.06
19080 H 23.85560741280284 112.67954856735828 26.0017779281838 H 0.0 **** 0.06
19081 C 179.92653003317037 117.04659081101578 58.32270509011056 C 0.0 **** -0.24
19082 H 179.03336578640426 116.99831755254748 58.94524862234067 H 0.0 **** 0.06
19083 H 180.81059207662298 116.89526297509902 58.94276261986931 H 0.0 **** 0.06
19084 H 179.9820083179067 118.0226882587201 57.84087517457846 H 0.0 **** 0.06
19085 H 179.88005402754789 116.26795613898211 57.55983209666363 H 0.0 **** 0.06
19086 C 39.10853698418015 186.1437273225211 117.48117769347338 C 0.0 **** -0.24
19087 H 39.36867337916863 185.08541703895227 117.44512840197858 H 0.0 **** 0.06
19088 H 38.73972650198965 186.39256789895987 118.47615223046579 H 0.0 **** 0.06
19089 H 38.33347784701317 186.35192676955143 116.74382604408477 H 0.0 **** 0.06
19090 H 39.99154047808821 186.74266185740598 117.25949463107567 H 0.0 **** 0.06
19091 C 206.5247673932389 65.99959836718398 140.36047074508969 C 0.0 **** -0.24
19092 H 206.37944650678247 65.17528541394836 139.6622708227249 H 0.0 **** 0.06
19093 H 207.21594360966466 66.72382304481945 139.92701691270855 H 0.0 **** 0.06
19094 H 206.93555850323318 65.6178048202454 141.29410528584845 H 0.0 **** 0.06
19095 H 205.56783702033073 66.4831833162329 140.55517047425866 H 0.0 **** 0.06
19096 C 27.708936597924037 133.70222084827162 83.30732631290186 C 0.0 **** -0.24
19097 H 28.686860494599898 133.45915490969946 82.89246377093662 H 0.0 **** 0.06
19098 H 27.506953459334568 133.0578017448097 84.1636796218292 H 0.0 **** 0.06
19099 H 26.943416872511648 133.54783928667433 82.54777973932147 H 0.0 **** 0.06
19100 H 27.70003079150797 134.74445817759772 83.62698422332181 H 0.0 **** 0.06
19101 C 96.16342957290772 13.127167003391776 32.729262339157856 C 0.0 **** -0.24
19102 H 96.9637808074429 12.388272019206795 32.74389850424379 H 0.0 **** 0.06
19103 H 95.22575350714311 12.641439436857667 32.45820981191767 H 0.0 **** 0.06
19104 H 96.3967623878197 13.901512487856792 31.998338260837073 H 0.0 **** 0.06
19105 H 96.06664143524569 13.57680681172252 33.71759540040915 H 0.0 **** 0.06
19106 C 174.32595714164228 159.72409873670614 3.536774249955954 C 0.0 **** -0.24
19107 H 174.07540852373933 160.64201423865808 4.070558564756112 H 0.0 **** 0.06
19108 H 175.02174941738883 159.1350685939148 4.13531560813243 H 0.0 **** 0.06
19109 H 174.7878849357537 159.97534332778207 2.582078485601329 H 0.0 **** 0.06
19110 H 173.41835945384815 159.14772182371087 3.361319969175298 H 0.0 **** 0.06
19111 C 3.9313187933170184 210.98136455578106 197.83802720686094 C 0.0 **** -0.24
19112 H 4.060678489498116 211.19155345649804 196.7766244457544 H 0.0 **** 0.06
19113 H 4.866768294330086 210.59946916731275 198.2488316695334 H 0.0 **** 0.06
19114 H 3.1471492890183868 210.23582854272289 197.96682691732744 H 0.0 **** 0.06
19115 H 3.6519437295855255 211.8972299773426 198.35859923436664 H 0.0 **** 0.06
19116 C 126.88248653045672 184.5411558692452 173.26201948369422 C 0.0 **** -0.24
19117 H 127.37471721387696 184.8144559317188 172.3282394342055 H 0.0 **** 0.06
19118 H 127.60552316341527 184.57945070073035 174.07754182591722 H 0.0 **** 0.06
19119 H 126.4823679549027 183.53072425762355 173.17794082431058 H 0.0 **** 0.06
19120 H 126.06976412209194 185.2388656631387 173.46299823988699 H 0.0 **** 0.06
19121 C 55.671693544267995 153.083487746493 213.68918844434057 C 0.0 **** -0.24
19122 H 56.17252738302413 152.39182299782402 213.0115842215039 H 0.0 **** 0.06
19123 H 54.73912325062112 152.63950085222348 214.03853846162372 H 0.0 **** 0.06
19124 H 55.45663510641795 154.014843757907 213.16458287990326 H 0.0 **** 0.06
19125 H 56.31848843700864 153.2877833780176 214.54204821433143 H 0.0 **** 0.06
19126 C 19.790775207229387 24.13476484997858 133.60737062889382 C 0.0 **** -0.24
19127 H 18.80377144459561 23.7393912215868 133.3689248478882 H 0.0 **** 0.06
19128 H 19.78704446764675 24.53226360485752 134.6225927563898 H 0.0 **** 0.06
19129 H 20.0433601497312 24.930451724109844 132.90577644448877 H 0.0 **** 0.06
19130 H 20.528924766943874 23.336952849360273 133.5321884668084 H 0.0 **** 0.06
19131 C 116.05228567256673 61.422108869297205 127.62483517727924 C 0.0 **** -0.24
19132 H 115.44056718696349 60.918947059144074 128.3748470799295 H 0.0 **** 0.06
19133 H 115.414769375 62.04083015563127 126.99265949745006 H 0.0 **** 0.06
19134 H 116.55941057980003 60.6782487175806 127.01202484376819 H 0.0 **** 0.06
19135 H 116.79129020508834 62.05006491612916 128.12186800373775 H 0.0 **** 0.06
19136 C 62.95063223633167 96.63737439154427 201.1115990182028 C 0.0 **** -0.24
19137 H 62.86925325530768 96.89538758758944 202.16670458667306 H 0.0 **** 0.06
19138 H 62.208930203329714 95.87617409600928 200.8658056649607 H 0.0 **** 0.06
19139 H 63.94970297213246 96.25026799214636 200.90827548796716 H 0.0 **** 0.06
19140 H 62.77495131628183 97.52548437471764 200.5052402178714 H 0.0 **** 0.06
19141 C 110.55137102851451 156.99498381569282 190.00438510801808 C 0.0 **** -0.24
19142 H 111.03141769039637 157.10839100321698 190.9765425818214 H 0.0 **** 0.06
19143 H 110.0864888554567 157.9384664560065 189.7173603378709 H 0.0 **** 0.06
19144 H 109.78968337600868 156.21764899566904 190.0643653779307 H 0.0 **** 0.06
19145 H 111.29844979308753 156.71594395664022 189.26046627150225 H 0.0 **** 0.06
19146 C 158.8102591400783 3.4182047441157977 29.710665047825074 C 0.0 **** -0.24
19147 H 159.07275535631447 3.563811825759103 30.75864761231992 H 0.0 **** 0.06
19148 H 158.3562723222284 4.3296732952058505 29.32016126068288 H 0.0 **** 0.06
19149 H 158.10139545718738 2.593975483605874 29.625432666248457 H 0.0 **** 0.06
19150 H 159.70889962544823 3.185259974233759 29.140166024968494 H 0.0 **** 0.06
19151 C 51.41784743480912 42.72031561793813 178.98997689287475 C 0.0 **** -0.24
19152 H 52.01552116141306 42.902461768719775 179.88346726402833 H 0.0 **** 0.06
19153 H 51.72463827633635 41.77954348221783 178.53293389252647 H 0.0 **** 0.06
19154 H 51.56726760985856 43.53494119229606 178.28094168133316 H 0.0 **** 0.06
19155 H 50.36343300538323 42.665516206876305 179.26309297436006 H 0.0 **** 0.06
19156 C 153.01565770214683 132.54338190929218 167.76667835244206 C 0.0 **** -0.24
19157 H 152.68932254872868 131.55341269839494 168.08736743449748 H 0.0 **** 0.06
19158 H 154.0982852041942 132.61705627830025 167.86199828892782 H 0.0 **** 0.06
19159 H 152.54242784322145 133.30076179106845 168.39220801982012 H 0.0 **** 0.06
19160 H 152.7291243215069 132.70048458356695 166.72643149634158 H 0.0 **** 0.06
19161 C 158.1608259226768 86.87136627057072 88.62227564449257 C 0.0 **** -0.24
19162 H 157.20891471696513 86.6168999039246 88.1555947351754 H 0.0 **** 0.06
19163 H 157.97669241980213 87.35096026475469 89.58333681904334 H 0.0 **** 0.06
19164 H 158.71198373076612 87.55266341202048 87.9750929886798 H 0.0 **** 0.06
19165 H 158.7439693729193 85.96253707256744 88.77465465007027 H 0.0 **** 0.06
19166 C 58.56163085060689 74.53812458838685 3.9851801075737043 C 0.0 **** -0.24
19167 H 58.9211723311241 75.54476468043994 4.1992333504479475 H 0.0 **** 0.06
19168 H 59.15205030481951 74.10563544550219 3.1774554358356255 H 0.0 **** 0.06
19169 H 57.514200762894575 74.58426485561348 3.6860874232749907 H 0.0 **** 0.06
19170 H 58.65825565306574 73.92132726697305 4.878227046454505 H 0.0 **** 0.06
19171 C 156.69045566308506 54.82798263493197 116.3183494461324 C 0.0 **** -0.24
19172 H 156.97269540250346 53.83222758928298 115.97545038447743 H 0.0 **** 0.06
19173 H 155.6150442665039 54.960494967661134 116.20025649562837 H 0.0 **** 0.06
19174 H 157.2171321769203 55.577144532583986 115.72765373069944 H 0.0 **** 0.06
19175 H 156.95846433805076 54.93916862272414 117.36851093121356 H 0.0 **** 0.06
19176 C 212.97597996058073 37.85793776260614 126.9120668915355 C 0.0 **** -0.24
19177 H 213.23225458864886 36.823612330047894 127.14137749095543 H 0.0 **** 0.06
19178 H 213.8868584903214 38.45579335307548 126.86395081900103 H 0.0 **** 0.06
19179 H 212.32410501238627 38.251533556299876 127.69237295360576 H 0.0 **** 0.06
19180 H 212.46079990209722 37.90010141389658 125.9529084819075 H 0.0 **** 0.06
19181 C 139.72669371775908 176.76196740239098 196.16472857230417 C 0.0 **** -0.24
19182 H 139.4334162834993 176.5537136382057 197.19372364264024 H 0.0 **** 0.06
19183 H 140.50777100181767 176.06486222826345 195.86172892734035 H 0.0 **** 0.06
19184 H 140.10259235733304 177.78283448494966 196.0948733408914 H 0.0 **** 0.06
19185 H 138.86299942884085 176.64785278242834 195.5103371370967 H 0.0 **** 0.06
19186 C 67.66067798368451 197.5991184510353 63.959114921762364 C 0.0 **** -0.24
19187 H 67.80846185462946 198.51011142318404 63.380114187745534 H 0.0 **** 0.06
19188 H 68.14933064006755 197.70204389813904 64.9284730011798 H 0.0 **** 0.06
19189 H 68.09215534624212 196.75390063568568 63.42221336729192 H 0.0 **** 0.06
19190 H 66.593897091977 197.4308100874539 64.10490913312798 H 0.0 **** 0.06
19191 C 161.2146476821804 109.98233709638566 17.174410914645023 C 0.0 **** -0.24
19192 H 160.64132037374728 110.28755199013153 18.048834024550445 H 0.0 **** 0.06
19193 H 160.73028259999273 109.1256361942174 16.703679353692706 H 0.0 **** 0.06
19194 H 162.22375244326764 109.7068962479778 17.479196148985523 H 0.0 **** 0.06
19195 H 161.26230460324518 110.80767177158998 16.464669685164154 H 0.0 **** 0.06
19196 C 83.97570466903488 147.17754751749783 19.790709510859983 C 0.0 **** -0.24
19197 H 84.14442540014477 147.24037725953173 18.716341393788156 H 0.0 **** 0.06
19198 H 84.93321794575354 147.19924451412828 20.311641091358496 H 0.0 **** 0.06
19199 H 83.45657043465644 146.2479834858906 20.023991513882635 H 0.0 **** 0.06
19200 H 83.36726022197416 148.02352632021018 20.112682151648585 H 0.0 **** 0.06
19201 C 152.0200996419672 143.32262531443513 69.46691811417621 C 0.0 **** -0.24
19202 H 151.79574793127733 144.34112890714732 69.78286093819001 H 0.0 **** 0.06
19203 H 151.7164021811136 142.62430186018003 70.24790810867155 H 0.0 **** 0.06
19204 H 153.09091012747456 143.2252929973514 69.28784700519742 H 0.0 **** 0.06
19205 H 151.47642278667888 143.09938400075697 68.54913986025166 H 0.0 **** 0.06
19206 C 116.72076030941766 93.49454917521986 133.75982020777985 C 0.0 **** -0.24
19207 H 117.13937772916593 93.8639219169191 134.69597797741682 H 0.0 **** 0.06
19208 H 116.41992270736624 92.45418144413814 133.88177041005696 H 0.0 **** 0.06
19209 H 117.47109507975485 93.56636453059376 132.9731103461707 H 0.0 **** 0.06
19210 H 115.85239388917593 94.09543973802344 133.4883253811691 H 0.0 **** 0.06
19211 C 60.4646258230124 66.49412887428917 0.80053119465191 C 0.0 **** -0.24
19212 H 60.167354145893455 67.0858317615826 1.6664731002127553 H 0.0 **** 0.06
19213 H 59.80642717330488 65.62934413022927 0.7083138117803287 H 0.0 **** 0.06
19214 H 61.49333854430148 66.156992993856 0.9276479570332867 H 0.0 **** 0.06
19215 H 60.39068095939837 67.1049679949779 -0.09996305065220668 H 0.0 **** 0.06
19216 C 108.85979017846351 100.08067383378135 61.873509744136584 C 0.0 **** -0.24
19217 H 108.76437587177408 100.38923913371387 62.915070937943824 H 0.0 **** 0.06
19218 H 107.89822644071542 100.19415827708066 61.372069209279346 H 0.0 **** 0.06
19219 H 109.17113945080762 99.03742424490706 61.83173601076277 H 0.0 **** 0.06
19220 H 109.60523273482285 100.7023489427266 61.377944829359194 H 0.0 **** 0.06
19221 C 119.62503322004692 84.67200722607902 109.74496116517439 C 0.0 **** -0.24
19222 H 119.78860960401455 85.7415102174553 109.87798844766452 H 0.0 **** 0.06
19223 H 119.18772230839453 84.2560617218607 110.65224867704715 H 0.0 **** 0.06
19224 H 120.57816952240857 84.18183312859799 109.54219354046911 H 0.0 **** 0.06
19225 H 118.94789629242509 84.50914681614296 108.90664129783964 H 0.0 **** 0.06
19226 C 208.4974733157796 153.64291227099648 191.28344929302747 C 0.0 **** -0.24
19227 H 209.50676289674126 153.97047577040445 191.03554241387585 H 0.0 **** 0.06
19228 H 207.98077754817373 153.33905646809717 190.37253860163582 H 0.0 **** 0.06
19229 H 207.95359477599376 154.46185949284347 191.7538275580518 H 0.0 **** 0.06
19230 H 208.5482854421748 152.79869534456788 191.97073237720832 H 0.0 **** 0.06
19231 C 29.957863847203555 18.136791606402454 149.78901595655344 C 0.0 **** -0.24
19232 H 30.89357510780863 18.685647545484557 149.68000338206497 H 0.0 **** 0.06
19233 H 29.899543608261723 17.363961651590046 149.0218244766824 H 0.0 **** 0.06
19234 H 29.11847494902092 18.823890413197006 149.67599530868165 H 0.0 **** 0.06
19235 H 29.92004949245829 17.67481006161806 150.7746828549498 H 0.0 **** 0.06
19236 C 98.38999722549282 42.39933513021617 127.85542637800366 C 0.0 **** -0.24
19237 H 99.14452592108414 41.87502130674767 128.44172288688907 H 0.0 **** 0.06
19238 H 97.88390790016165 41.69161803760173 127.19854263275612 H 0.0 **** 0.06
19239 H 98.87010340767988 43.17235858599855 127.25456537558894 H 0.0 **** 0.06
19240 H 97.66304481043638 42.85881607464728 128.52458597927694 H 0.0 **** 0.06
19241 C 189.75777391304302 199.29365171878234 195.10127225845545 C 0.0 **** -0.24
19242 H 189.42054555734848 199.1953386826934 194.0692491357625 H 0.0 **** 0.06
19243 H 189.58688249327773 198.35525095533137 195.6305522387695 H 0.0 **** 0.06
19244 H 189.20258255339928 200.0933063831871 195.589961404446 H 0.0 **** 0.06
19245 H 190.8216955684536 199.5289482599839 195.11409312373763 H 0.0 **** 0.06
19246 C 209.6856948658267 122.34637001289099 1.8804323874354054 C 0.0 **** -0.24
19247 H 209.67993443271368 121.57155620094824 1.1146853745324847 H 0.0 **** 0.06
19248 H 210.71476257458588 122.6313720440969 2.1005224573447663 H 0.0 **** 0.06
19249 H 209.21223841569693 121.96517827986594 2.785686497385825 H 0.0 **** 0.06
19250 H 209.13570470164083 123.2162363493544 1.521664344368446 H 0.0 **** 0.06
19251 C 130.68164250885485 216.75526601071198 0.8052565983714999 C 0.0 **** -0.24
19252 H 131.14326292839968 217.25253134363254 -0.048229737491510605 H 0.0 **** 0.06
19253 H 129.99995108250704 217.44617933856097 1.3027188919712955 H 0.0 **** 0.06
19254 H 131.45605932519294 216.44230143193454 1.5047427555729769 H 0.0 **** 0.06
19255 H 130.12783877053818 215.88208171954238 0.46102885117500136 H 0.0 **** 0.06
19256 C 185.03316371886226 159.61718858943115 74.2282362445183 C 0.0 **** -0.24
19257 H 184.99858362941052 160.69973702409857 74.35184144450629 H 0.0 **** 0.06
19258 H 184.9062328029884 159.3676956537867 73.1752481448501 H 0.0 **** 0.06
19259 H 184.23295257982124 159.1599697926792 74.8095582106318 H 0.0 **** 0.06
19260 H 185.9953097045559 159.2434606434893 74.57746918788338 H 0.0 **** 0.06
19261 C 149.52712973268416 177.3071995299053 62.960920101569556 C 0.0 **** -0.24
19262 H 150.13881806845262 176.500916589869 63.36387706227417 H 0.0 **** 0.06
19263 H 149.8252154182071 177.51202639778086 61.93207607270334 H 0.0 **** 0.06
19264 H 149.66442219104357 178.2045652823269 63.56466394850273 H 0.0 **** 0.06
19265 H 148.47793121450928 177.01193106456196 62.982855140410166 H 0.0 **** 0.06
19266 C 182.6544832669037 74.34045698545627 178.72794496326225 C 0.0 **** -0.24
19267 H 182.8108043869413 75.03747227321337 179.55136437998522 H 0.0 **** 0.06
19268 H 181.94479244904613 74.76845804287656 178.01953887602713 H 0.0 **** 0.06
19269 H 182.25925616039984 73.40200786428919 179.1173212911902 H 0.0 **** 0.06
19270 H 183.60295143174923 74.15361919309221 178.2252612646669 H 0.0 **** 0.06
19271 C 42.84988993165314 6.620190570618377 90.35699031114332 C 0.0 **** -0.24
19272 H 43.8960809023327 6.621827245281466 90.6608453580523 H 0.0 **** 0.06
19273 H 42.35417306160656 7.505076343442994 90.75698543800068 H 0.0 **** 0.06
19274 H 42.36099696593277 5.725243565382783 90.74213919879936 H 0.0 **** 0.06
19275 H 42.787525367335945 6.628343232240056 89.26951189488356 H 0.0 **** 0.06
19276 C 158.2541616704687 15.083265679687187 81.02501149778226 C 0.0 **** -0.24
19277 H 157.7193039040488 15.91935794153153 81.4759372589183 H 0.0 **** 0.06
19278 H 158.08840225819148 15.084953230761812 79.947376532921 H 0.0 **** 0.06
19279 H 157.8881192878015 14.147961230553449 81.44819313035055 H 0.0 **** 0.06
19280 H 159.32027025933894 15.181380033763219 81.22912955950096 H 0.0 **** 0.06
19281 C 117.59429324122266 1.8382306192289661 153.60425844189723 C 0.0 **** -0.24
19282 H 117.96018440712697 2.2662239965927995 152.6702699611792 H 0.0 **** 0.06
19283 H 118.10476245187681 0.8928686327174375 153.79373422256697 H 0.0 **** 0.06
19284 H 116.5213966366652 1.66324486456233 153.5279958116438 H 0.0 **** 0.06
19285 H 117.7929882942031 2.529507127383539 154.42254823296867 H 0.0 **** 0.06
19286 C 95.14820295349426 79.3035079921283 28.928233355526743 C 0.0 **** -0.24
19287 H 95.31031272664694 79.64055390833728 27.905175888050735 H 0.0 **** 0.06
19288 H 94.443276164841 79.97179774119253 29.4240359289293 H 0.0 **** 0.06
19289 H 96.09657792236362 79.31043371963291 29.46718337209387 H 0.0 **** 0.06
19290 H 94.74368477632419 78.29132478510216 28.91792127435258 H 0.0 **** 0.06
19291 C 185.72666354715707 66.00953309873182 55.73902251979199 C 0.0 **** -0.24
19292 H 184.86260409032352 65.40006044687237 55.47384619551514 H 0.0 **** 0.06
19293 H 186.07171605564514 65.73595499220164 56.73683860860375 H 0.0 **** 0.06
19294 H 185.44643608363762 67.06210443528187 55.726602328290895 H 0.0 **** 0.06
19295 H 186.5260790602564 65.8377839981253 55.01877172505061 H 0.0 **** 0.06
19296 C 103.11921190338022 122.77862430298246 53.90340843422021 C 0.0 **** -0.24
19297 H 103.97776278099077 122.17768791728749 53.60610898508581 H 0.0 **** 0.06
19298 H 102.24152333757247 122.4608055183666 53.34093609552879 H 0.0 **** 0.06
19299 H 103.32218017471213 123.82966084678587 53.69634512978608 H 0.0 **** 0.06
19300 H 102.93482943055456 122.64781391773407 54.96951437478046 H 0.0 **** 0.06
19301 C 200.51999741199302 138.47720755424956 174.70183341554156 C 0.0 **** -0.24
19302 H 200.04716759634687 138.71775799780562 175.65356634624357 H 0.0 **** 0.06
19303 H 200.07806841027406 139.08651678498734 173.91288780870244 H 0.0 **** 0.06
19304 H 200.3650494757168 137.42257860890157 174.47609231114384 H 0.0 **** 0.06
19305 H 201.58890203702535 138.6835086245601 174.7648883473434 H 0.0 **** 0.06
19306 C 197.80722021431052 112.67251539203777 58.729735390450315 C 0.0 **** -0.24
19307 H 197.79176709100966 113.7355880830154 58.492670493783635 H 0.0 **** 0.06
19308 H 198.79237641226166 112.26438322849707 58.50698549485533 H 0.0 **** 0.06
19309 H 197.05523436126788 112.1558675036974 58.13240098508503 H 0.0 **** 0.06
19310 H 197.5872053403641 112.53374540862363 59.78875356872781 H 0.0 **** 0.06
19311 C 65.20304830463212 206.5074594179035 148.55173873979766 C 0.0 **** -0.24
19312 H 64.85589096101319 207.3500399351462 149.14940083488005 H 0.0 **** 0.06
19313 H 65.22439027394418 205.60925518586134 149.16892980857062 H 0.0 **** 0.06
19314 H 66.20610458074071 206.71655271434412 148.17900257521558 H 0.0 **** 0.06
19315 H 64.52747067317142 206.35657680054385 147.71035748305246 H 0.0 **** 0.06
19316 C 153.69858400092465 172.34231347216377 23.38974132541307 C 0.0 **** -0.24
19317 H 153.9602385032457 172.83824383460626 22.45594632406494 H 0.0 **** 0.06
19318 H 154.53451131465653 172.41478836171726 24.086035850685903 H 0.0 **** 0.06
19319 H 153.477016707031 171.29310714272594 23.194882028206393 H 0.0 **** 0.06
19320 H 152.82237093578135 172.82386098272605 23.823285772565043 H 0.0 **** 0.06
19321 C 182.9158016932859 90.1968067495276 136.49723676008495 C 0.0 **** -0.24
19322 H 182.4531635344107 90.85899888737355 137.22989197487465 H 0.0 **** 0.06
19323 H 183.8889616771753 89.87264759766545 136.86632974411708 H 0.0 **** 0.06
19324 H 183.04257416362765 90.72993628982395 135.5551413475735 H 0.0 **** 0.06
19325 H 182.27871661647174 89.32695775381707 136.33964090516338 H 0.0 **** 0.06
19326 C 204.16789754431693 54.470403101688646 207.82084911373488 C 0.0 **** -0.24
19327 H 203.3051741936511 53.81667414405359 207.95038680103158 H 0.0 **** 0.06
19328 H 205.0015061361201 53.895295070792486 207.41669738456227 H 0.0 **** 0.06
19329 H 204.45090809881015 54.89310826246822 208.78441203069335 H 0.0 **** 0.06
19330 H 203.91406477954777 55.274564561631394 207.13156297673265 H 0.0 **** 0.06
19331 C 24.517102912591227 103.49900681236825 26.65131111427047 C 0.0 **** -0.24
19332 H 24.022252575519502 104.19755264052678 25.97656597209425 H 0.0 **** 0.06
19333 H 23.874597948672715 103.30651111583084 27.510769619473365 H 0.0 **** 0.06
19334 H 25.460178250631387 103.92887374626362 26.989879385811207 H 0.0 **** 0.06
19335 H 24.711976885993153 102.56415483037561 26.12547744438558 H 0.0 **** 0.06
19336 C 66.08481895054268 173.01015513365584 20.205241213779587 C 0.0 **** -0.24
19337 H 65.08547997012664 172.94103786911714 20.635907623702124 H 0.0 **** 0.06
19338 H 66.49261530541133 174.0042408999787 20.389758872596474 H 0.0 **** 0.06
19339 H 66.031056974862 172.83283016483742 19.131655342950964 H 0.0 **** 0.06
19340 H 66.72981325821195 172.2606888663272 20.665249707825225 H 0.0 **** 0.06
19341 C 170.46561564600515 211.22654815629005 62.92143703430037 C 0.0 **** -0.24
19342 H 171.17252797511065 212.01910151539198 63.16918748935444 H 0.0 **** 0.06
19343 H 170.5907017910007 210.3976609711668 63.61822152690718 H 0.0 **** 0.06
19344 H 170.65032367178534 210.88010525333453 61.904722033638336 H 0.0 **** 0.06
19345 H 169.4482537819652 211.612538327951 62.99411152675407 H 0.0 **** 0.06
19346 C 100.961990024192 41.5682350791331 30.033642720636863 C 0.0 **** -0.24
19347 H 101.8149299867888 40.90392797802883 29.88876117909848 H 0.0 **** 0.06
19348 H 101.2274589567134 42.57564513566348 29.71013786324079 H 0.0 **** 0.06
19349 H 100.69161136309776 41.58555168052854 31.089832412792475 H 0.0 **** 0.06
19350 H 100.1168990879309 41.20805108589718 29.44698188439355 H 0.0 **** 0.06
19351 C 215.83861076841106 28.266561761814273 4.995561344624761 C 0.0 **** -0.24
19352 H 216.7718195324427 28.460641295459595 5.525645015643072 H 0.0 **** 0.06
19353 H 215.79707937350156 27.215938393810575 4.7066394972575765 H 0.0 **** 0.06
19354 H 215.79112554083565 28.891816231705548 4.104690357073146 H 0.0 **** 0.06
19355 H 214.99646263913473 28.498219633011672 5.647655122983821 H 0.0 **** 0.06
19356 C 162.25467572342725 60.835216758540355 13.991230504824955 C 0.0 **** -0.24
19357 H 163.10600341390654 60.5779273960253 13.360906392342088 H 0.0 **** 0.06
19358 H 161.83671404183502 59.926854912285094 14.425853256125492 H 0.0 **** 0.06
19359 H 161.49528771013678 61.333320869536166 13.388786092443809 H 0.0 **** 0.06
19360 H 162.58115840444643 61.50277014564706 14.788488723066791 H 0.0 **** 0.06
19361 C 161.21442480901388 16.968324187672323 118.49056279708152 C 0.0 **** -0.24
19362 H 161.58133419916035 17.794994242872292 117.8825667045724 H 0.0 **** 0.06
19363 H 160.27320280000325 16.604551687385083 118.0765677968834 H 0.0 **** 0.06
19364 H 161.05334978989916 17.31227599964504 119.5119878392044 H 0.0 **** 0.06
19365 H 161.94769838617077 16.16287760388508 118.48837872335874 H 0.0 **** 0.06
19366 C 60.209137453700905 37.450213755888996 177.92777886179815 C 0.0 **** -0.24
19367 H 59.437309490049955 37.650082764169866 178.6719738189626 H 0.0 **** 0.06
19368 H 60.550942151155766 36.41957282727711 178.0267433721834 H 0.0 **** 0.06
19369 H 61.04733445287937 38.12880620792288 178.08380193525954 H 0.0 **** 0.06
19370 H 59.797635694808775 37.60293465924826 176.93021845792737 H 0.0 **** 0.06
19371 C 197.59469474115656 165.65048560750122 93.33053296047412 C 0.0 **** -0.24
19372 H 197.833936328577 164.99896008324737 94.17053955432685 H 0.0 **** 0.06
19373 H 197.24292827507574 166.61177552421418 93.70517570664659 H 0.0 **** 0.06
19374 H 196.81617508664635 165.18933771020386 92.723485279733 H 0.0 **** 0.06
19375 H 198.4876809442513 165.80037580202827 92.7229379278988 H 0.0 **** 0.06
19376 C 116.53826552254712 38.06421160762241 103.50401447127159 C 0.0 **** -0.24
19377 H 117.40191373989929 38.68061431405994 103.7538316030052 H 0.0 **** 0.06
19378 H 115.88166069668758 37.992740704926604 104.37036320433437 H 0.0 **** 0.06
19379 H 116.87474572523548 37.06781528911141 103.21880652280034 H 0.0 **** 0.06
19380 H 115.99698248362897 38.51777688455644 102.67380946923812 H 0.0 **** 0.06
19381 C 132.08197730735208 145.37803197554092 24.664890359790135 C 0.0 **** -0.24
19382 H 132.37891831027378 146.3611585553424 25.031843118261904 H 0.0 **** 0.06
19383 H 132.0657925347873 144.6704040556806 25.49498911901256 H 0.0 **** 0.06
19384 H 132.79623048812982 145.04132876602375 23.91409380666167 H 0.0 **** 0.06
19385 H 131.08935364291005 145.44178146350419 24.21998881260612 H 0.0 **** 0.06
19386 C 32.73708988540285 144.53336073174478 198.74938195162522 C 0.0 **** -0.24
19387 H 32.955045059837985 145.51439516749213 198.32720175833674 H 0.0 **** 0.06
19388 H 31.78065298756583 144.56767671034004 199.27156297343384 H 0.0 **** 0.06
19389 H 33.52446381239149 144.2551754008943 199.4493000487433 H 0.0 **** 0.06
19390 H 32.68736161070724 143.79661877379806 197.9474327465436 H 0.0 **** 0.06
19391 C 119.3938248671681 79.03692353302603 75.81384161758497 C 0.0 **** -0.24
19392 H 120.11252240426099 79.14052148416295 75.00071096567173 H 0.0 **** 0.06
19393 H 118.90322211596857 79.99472793495994 75.98911516565754 H 0.0 **** 0.06
19394 H 119.91437854694168 78.72292823912852 76.71865815216616 H 0.0 **** 0.06
19395 H 118.64819461022448 78.28918984365777 75.54521367487108 H 0.0 **** 0.06
19396 C 167.70998498925638 107.03003291310982 55.6837609546327 C 0.0 **** -0.24
19397 H 168.12410121510493 106.30477234952473 54.982624006694834 H 0.0 **** 0.06
19398 H 168.21265067351237 107.9881044633464 55.55301217332004 H 0.0 **** 0.06
19399 H 167.86216565984506 106.67616349662624 56.70370537755076 H 0.0 **** 0.06
19400 H 166.6439146759343 107.14918838241927 55.49558506843192 H 0.0 **** 0.06
19401 C 137.80685255400113 80.00966248998664 59.293332985166074 C 0.0 **** -0.24
19402 H 137.5386781050516 80.86026146837465 58.66806988011804 H 0.0 **** 0.06
19403 H 136.9018015380925 79.5510160319018 59.69073858393227 H 0.0 **** 0.06
19404 H 138.43531073794247 80.34813612134 60.11826030392274 H 0.0 **** 0.06
19405 H 138.35389175068286 79.27821975402559 58.69760670933026 H 0.0 **** 0.06
19406 C 66.19914706784749 156.08921712132553 149.17794247786168 C 0.0 **** -0.24
19407 H 66.02778638915976 156.42716955281975 148.1564524925318 H 0.0 **** 0.06
19408 H 66.02634577657096 155.01470082151866 149.23853597661974 H 0.0 **** 0.06
19409 H 65.51599061731253 156.60554507024574 149.8511132006456 H 0.0 **** 0.06
19410 H 67.22772571316312 156.3089670800852 149.46524906439186 H 0.0 **** 0.06
19411 C 79.66438730382718 87.29832065484335 176.47222584115173 C 0.0 **** -0.24
19412 H 79.43451965636906 87.58359888296205 177.49867716935665 H 0.0 **** 0.06
19413 H 80.26034250319766 88.08089307649918 176.002574967903 H 0.0 **** 0.06
19414 H 78.73568715047163 87.1664081825749 175.915424896334 H 0.0 **** 0.06
19415 H 80.22371136007872 86.36373499781926 176.47162935596873 H 0.0 **** 0.06
19416 C 143.85655805944816 180.88802722263932 169.9277840740791 C 0.0 **** -0.24
19417 H 143.73189439759403 180.4371377342892 168.9430385306885 H 0.0 **** 0.06
19418 H 142.87596905073593 181.08396462092674 170.36370826515162 H 0.0 **** 0.06
19419 H 144.40517418581766 181.8245209725369 169.83071230971535 H 0.0 **** 0.06
19420 H 144.41104863443303 180.2061622538979 170.5716058530214 H 0.0 **** 0.06
19421 C 73.51749504959776 169.39205887525037 168.9434105738962 C 0.0 **** -0.24
19422 H 73.0642919499071 169.37420256220656 167.95181274512817 H 0.0 **** 0.06
19423 H 72.78059226419822 169.081033392268 169.68442378792093 H 0.0 **** 0.06
19424 H 73.8563812674808 170.4034878141605 169.1697947299871 H 0.0 **** 0.06
19425 H 74.36739268070113 168.70951835845202 168.9671088268805 H 0.0 **** 0.06
19426 C 80.69940939637412 61.385425039216685 96.90860118320523 C 0.0 **** -0.24
19427 H 80.81817656011368 60.4997715603523 97.53360152719148 H 0.0 **** 0.06
19428 H 79.99053303986894 62.06839385638065 97.37746049486782 H 0.0 **** 0.06
19429 H 80.32750475295096 61.09081043686939 95.92761275418513 H 0.0 **** 0.06
19430 H 81.66331113066742 61.88196518387399 96.7966571368409 H 0.0 **** 0.06
19431 C 140.86845344980543 196.0609189068249 79.78153190488935 C 0.0 **** -0.24
19432 H 141.22520234133856 195.03313785288918 79.8551965907606 H 0.0 **** 0.06
19433 H 140.4961383435429 196.24404339596333 78.77349369974239 H 0.0 **** 0.06
19434 H 141.68797890472536 196.74612915340344 79.9966227495622 H 0.0 **** 0.06
19435 H 140.06446038433916 196.21913671922331 80.5001148201063 H 0.0 **** 0.06
19436 C 35.27748590277906 105.82770639313866 113.40978595934446 C 0.0 **** -0.24
19437 H 36.1175293363668 105.86398417793252 112.71634520168477 H 0.0 **** 0.06
19438 H 35.65052200253386 105.84987334471161 114.43404707952386 H 0.0 **** 0.06
19439 H 34.71341904707546 104.90909788634006 113.24850319869113 H 0.0 **** 0.06
19440 H 34.629367887565095 106.68678758322822 113.24041458878024 H 0.0 **** 0.06
19441 C 127.3032741373109 57.61134730445019 81.79190651168265 C 0.0 **** -0.24
19442 H 127.69635813493005 58.512798141098756 82.26225266171211 H 0.0 **** 0.06
19443 H 128.01565198015857 57.24842403739888 81.05064700423465 H 0.0 **** 0.06
19444 H 126.3552221018665 57.839759940474096 81.30424356034204 H 0.0 **** 0.06
19445 H 127.1458643322884 56.84440709882898 82.55048282044187 H 0.0 **** 0.06
19446 C 104.9378939081297 180.90425866881512 57.8110319514081 C 0.0 **** -0.24
19447 H 104.03201458220127 181.36377905166495 58.20642264602748 H 0.0 **** 0.06
19448 H 105.65259661283108 181.6820938882745 57.54166685212334 H 0.0 **** 0.06
19449 H 104.6907122820545 180.3159884713713 56.92797049499882 H 0.0 **** 0.06
19450 H 105.37542962287012 180.25472336122772 58.569126614458185 H 0.0 **** 0.06
19451 C 133.32404858294115 186.6278794381561 68.35372496093748 C 0.0 **** -0.24
19452 H 133.97869931856508 186.44239432939594 69.20582932166195 H 0.0 **** 0.06
19453 H 133.75445302434412 186.1759606838488 67.4600580245069 H 0.0 **** 0.06
19454 H 133.21906747718373 187.70264078798058 68.20388119825213 H 0.0 **** 0.06
19455 H 132.34504498368943 186.19036063372508 68.54732860858354 H 0.0 **** 0.06
19456 C 23.79753945097376 60.57266705786206 205.73721143353498 C 0.0 **** -0.24
19457 H 23.534126750662097 60.83505110950344 206.7617452260509 H 0.0 **** 0.06
19458 H 22.93292805793034 60.12922945446944 205.24230499302342 H 0.0 **** 0.06
19459 H 24.61963237725689 59.85660860145029 205.74418660921413 H 0.0 **** 0.06
19460 H 24.10162148625308 61.47075432808701 205.19981539449782 H 0.0 **** 0.06
19461 C 24.185250712399196 155.02282187286784 85.63077845266929 C 0.0 **** -0.24
19462 H 24.5518842226719 154.30172962583742 84.89950012327705 H 0.0 **** 0.06
19463 H 24.495395484785632 156.0256173726708 85.3372200426902 H 0.0 **** 0.06
19464 H 24.5972772515252 154.78640433932992 86.61146291041587 H 0.0 **** 0.06
19465 H 23.09671897859448 154.97595064504787 85.6717040012997 H 0.0 **** 0.06
19466 C 85.8898318246969 64.07392085210046 184.34690908736383 C 0.0 **** -0.24
19467 H 85.55541085077664 64.96820736378083 183.82201065245619 H 0.0 **** 0.06
19468 H 85.03855961106956 63.6006576875842 184.83695270139106 H 0.0 **** 0.06
19469 H 86.63339801313919 64.3479938040349 185.09478772990985 H 0.0 **** 0.06
19470 H 86.3313492376505 63.377575487099136 183.6336239746882 H 0.0 **** 0.06
19471 C 70.72438389433024 117.187781747567 122.35724204336817 C 0.0 **** -0.24
19472 H 70.37186922364943 116.22101914929523 121.99758717454621 H 0.0 **** 0.06
19473 H 69.87069971345132 117.83994281884655 122.54284215239171 H 0.0 **** 0.06
19474 H 71.37066534873343 117.64040989505357 121.60482913266132 H 0.0 **** 0.06
19475 H 71.2848043034631 117.04904580696568 123.28141974757871 H 0.0 **** 0.06
19476 C 207.83522285286818 124.9694312543261 70.81690678537261 C 0.0 **** -0.24
19477 H 207.44592710204233 125.38881626155059 69.88879246961459 H 0.0 **** 0.06
19478 H 208.11828733738557 125.778755357724 71.49047500179408 H 0.0 **** 0.06
19479 H 208.70787040512653 124.35414919086399 70.5986057032505 H 0.0 **** 0.06
19480 H 207.0670519816547 124.3563931960728 71.28842347709893 H 0.0 **** 0.06
19481 C 30.85185755200888 168.76729459172108 45.8924727639677 C 0.0 **** -0.24
19482 H 30.33462281093108 169.50712846210274 45.281339220414594 H 0.0 **** 0.06
19483 H 31.289388995493994 169.25674660336554 46.76287733046058 H 0.0 **** 0.06
19484 H 31.640136964397783 168.29728892384827 45.30467996753485 H 0.0 **** 0.06
19485 H 30.141993803620096 168.00810324443887 46.22041649221319 H 0.0 **** 0.06
19486 C 103.02805400807718 215.49281911806992 110.72962810392927 C 0.0 **** -0.24
19487 H 101.95803604615578 215.33055514306824 110.60323947445214 H 0.0 **** 0.06
19488 H 103.40306512390926 216.0975519741856 109.90307199779097 H 0.0 **** 0.06
19489 H 103.54325836436327 214.532481176694 110.74101412129671 H 0.0 **** 0.06
19490 H 103.20843102373878 216.01264646839985 111.67027298149533 H 0.0 **** 0.06
19491 C 150.24899989687572 85.29565245127439 22.326698527379904 C 0.0 **** -0.24
19492 H 149.3397292331141 85.75381587791948 22.716290977746553 H 0.0 **** 0.06
19493 H 150.6094115506475 84.54694010232417 23.032019300030342 H 0.0 **** 0.06
19494 H 151.0113617644651 86.06340194508824 22.188864350929066 H 0.0 **** 0.06
19495 H 150.0345864020572 84.8203408393171 21.368843171331307 H 0.0 **** 0.06
19496 C 144.24702159345225 110.06896256692072 76.52745915758709 C 0.0 **** -0.24
19497 H 144.55410049911194 109.27040263047645 77.20345007822533 H 0.0 **** 0.06
19498 H 143.67405964359205 109.64523105822225 75.70238864107318 H 0.0 **** 0.06
19499 H 145.13146639966016 110.57185780599183 76.1350780711241 H 0.0 **** 0.06
19500 H 143.63060292117837 110.78582799697399 77.06897009503245 H 0.0 **** 0.06
19501 C 121.87056743164719 182.49551550831936 13.15534112899988 C 0.0 **** -0.24
19502 H 122.69284437983895 181.98844451464393 12.650159210557831 H 0.0 **** 0.06
19503 H 122.26186918245979 183.33305199972787 13.733947837841356 H 0.0 **** 0.06
19504 H 121.36876317041019 181.79511758706047 13.822362386575435 H 0.0 **** 0.06
19505 H 121.16163647925806 182.8648190265739 12.414174510692845 H 0.0 **** 0.06
19506 C 71.76087237676933 197.64451074828025 48.81510474804473 C 0.0 **** -0.24
19507 H 71.00806492190713 197.68708291848748 48.028366117689785 H 0.0 **** 0.06
19508 H 71.98061433038981 196.60302848072388 49.05175916205302 H 0.0 **** 0.06
19509 H 71.38452390398265 198.14680701818418 49.706131917651405 H 0.0 **** 0.06
19510 H 72.66973237710545 198.14051817086127 48.47624157146342 H 0.0 **** 0.06
19511 C 44.78231690679769 201.7314017694658 180.50965014599365 C 0.0 **** -0.24
19512 H 45.24504134115131 200.76176697758774 180.3243622242225 H 0.0 **** 0.06
19513 H 43.72061310811279 201.67950349658028 180.2698007380377 H 0.0 **** 0.06
19514 H 45.25999325074412 202.48596836080506 179.88442961517754 H 0.0 **** 0.06
19515 H 44.90684704025438 201.99705999978354 181.5590728800595 H 0.0 **** 0.06
19516 C 40.95142741396131 22.36756256505879 179.83713874797266 C 0.0 **** -0.24
19517 H 41.24681330357237 22.465645879028614 178.79295870561788 H 0.0 **** 0.06
19518 H 40.078627151175056 22.992784701867976 180.02818883538595 H 0.0 **** 0.06
19519 H 41.773554285483044 22.685769748500306 180.4786336752388 H 0.0 **** 0.06
19520 H 40.706884697798955 21.326959767674182 180.04915244158354 H 0.0 **** 0.06
19521 C 2.8678363825374618 124.45007424061572 111.45065772228679 C 0.0 **** -0.24
19522 H 2.2682358632218325 123.73359229119751 110.88981107798696 H 0.0 **** 0.06
19523 H 3.172148248242138 125.26378871092663 110.79222003440822 H 0.0 **** 0.06
19524 H 3.753653993776254 123.95151739686457 111.84607951612588 H 0.0 **** 0.06
19525 H 2.2783595089478013 124.8497139650978 112.27554755427019 H 0.0 **** 0.06
19526 C 67.1666021393957 134.2302047273472 16.870388299484475 C 0.0 **** -0.24
19527 H 68.13365342885614 134.0134906918197 17.325631079763525 H 0.0 **** 0.06
19528 H 66.66185172523336 135.00815203298578 17.44320776984418 H 0.0 **** 0.06
19529 H 66.55707254116025 133.32679220459863 16.866312467434994 H 0.0 **** 0.06
19530 H 67.31588024035483 134.5718946231937 15.845653105629097 H 0.0 **** 0.06
19531 C 46.38225007305364 1.586989956658357 84.96992012750401 C 0.0 **** -0.24
19532 H 46.301942644297 2.6716303849942165 84.89807310960067 H 0.0 **** 0.06
19533 H 45.40862336902158 1.167560893304227 85.2249680690994 H 0.0 **** 0.06
19534 H 47.10437191757657 1.326134982138143 85.74357952269854 H 0.0 **** 0.06
19535 H 46.7124249086546 1.1838030360100902 84.01208452718613 H 0.0 **** 0.06
19536 C 38.50688382395012 10.821710312041091 56.16339486285975 C 0.0 **** -0.24
19537 H 37.70768259905935 10.410585702485008 55.54656012292364 H 0.0 **** 0.06
19538 H 38.795748098366516 10.089489971642394 56.91852066004486 H 0.0 **** 0.06
19539 H 38.15635340620389 11.730575080795859 56.65391746073119 H 0.0 **** 0.06
19540 H 39.36646184314742 11.056405773351571 55.53571755470078 H 0.0 **** 0.06
19541 C 200.57852884275064 86.26843495508048 172.99447769096696 C 0.0 **** -0.24
19542 H 199.8594439109266 85.68752602091412 172.41743107427374 H 0.0 **** 0.06
19543 H 200.78335023683405 87.20802095665412 172.48041495683412 H 0.0 **** 0.06
19544 H 201.50359984348012 85.70151972891945 173.09861176206738 H 0.0 **** 0.06
19545 H 200.16678465020476 86.47748369431694 173.98213526895285 H 0.0 **** 0.06
19546 C 146.19759965357287 204.78230306771437 77.32771465183845 C 0.0 **** -0.24
19547 H 146.51652284584975 203.81039027539364 76.95052150945162 H 0.0 **** 0.06
19548 H 146.7059331076943 205.57145939067323 76.77242593596571 H 0.0 **** 0.06
19549 H 146.45082401858076 204.86165696148265 78.38498402123776 H 0.0 **** 0.06
19550 H 145.120267185358 204.88556564697123 77.20266782180971 H 0.0 **** 0.06
19551 C 146.4665841840146 156.04585665835913 28.37262555252903 C 0.0 **** -0.24
19552 H 147.288057405185 156.65798906674695 28.744149157254995 H 0.0 **** 0.06
19553 H 146.2881305554564 155.22095189371623 29.06201409273136 H 0.0 **** 0.06
19554 H 146.7248048481825 155.64898947864629 27.390012864764614 H 0.0 **** 0.06
19555 H 145.5665384251335 156.65439573217924 28.293158951146708 H 0.0 **** 0.06
19556 C 214.9758262777607 120.79819908032697 42.58605420124091 C 0.0 **** -0.24
19557 H 214.92006758806156 120.63200953807625 41.510246996856964 H 0.0 **** 0.06
19558 H 214.2529917344989 121.56202469487205 42.87297194667262 H 0.0 **** 0.06
19559 H 215.9797909372433 121.12900550545142 42.850754403562675 H 0.0 **** 0.06
19560 H 214.7498855247592 119.86865796190732 43.10838093699907 H 0.0 **** 0.06
19561 C 17.85430076644772 63.814192728713195 119.54604975886396 C 0.0 **** -0.24
19562 H 16.79399194241003 63.93056523749577 119.77285979570128 H 0.0 **** 0.06
19563 H 18.107147730896543 64.41711739779072 118.6738454283696 H 0.0 **** 0.06
19564 H 18.068339512516587 62.7659998548847 119.33856905600793 H 0.0 **** 0.06
19565 H 18.44643105032982 64.14413955408557 120.4000310041278 H 0.0 **** 0.06
19566 C 158.942883130721 155.4568035651767 69.41801051701309 C 0.0 **** -0.24
19567 H 158.8569878555969 154.6563806064952 70.15299162433776 H 0.0 **** 0.06
19568 H 159.41640553529555 156.32327622520978 69.87977647563027 H 0.0 **** 0.06
19569 H 157.9506182820486 155.7308222381302 69.0625582159046 H 0.0 **** 0.06
19570 H 159.54893522333947 155.11517035521905 68.57860015470197 H 0.0 **** 0.06
19571 C 209.98492035682273 89.5580171017955 152.91873446904765 C 0.0 **** -0.24
19572 H 210.4006910134339 88.55750208946648 152.79801324440024 H 0.0 **** 0.06
19573 H 209.24190171715847 89.54751563050685 153.7175105283623 H 0.0 **** 0.06
19574 H 209.51238985674368 89.86955170439565 151.9867885117015 H 0.0 **** 0.06
19575 H 210.78278418394686 90.2548044691418 153.1728973910723 H 0.0 **** 0.06
19576 C 40.62194953619725 18.42970877816134 42.9829929186638 C 0.0 **** -0.24
19577 H 41.136512631820736 17.98550424535574 43.83536155908689 H 0.0 **** 0.06
19578 H 39.54627095772415 18.396857714027874 43.152316628059054 H 0.0 **** 0.06
19579 H 40.86643107067104 17.870409297532888 42.07963583751564 H 0.0 **** 0.06
19580 H 40.94137773187775 19.46532715431104 42.86703455771283 H 0.0 **** 0.06
19581 C 17.006248854771314 115.93276600858957 78.2368970409068 C 0.0 **** -0.24
19582 H 15.929261296560014 115.87829949410565 78.39259648893602 H 0.0 **** 0.06
19583 H 17.468781052636487 115.00074258547141 78.56244496293726 H 0.0 **** 0.06
19584 H 17.415611274112564 116.76229166912316 78.81443209961685 H 0.0 **** 0.06
19585 H 17.21326137596634 116.0907221299359 77.17753881567444 H 0.0 **** 0.06
19586 C 84.38929396651197 181.94096477207427 99.05381796233819 C 0.0 **** -0.24
19587 H 84.63046140117733 182.95311185671184 99.37793164079291 H 0.0 **** 0.06
19588 H 84.13066637312035 181.33296114818387 99.92060311106083 H 0.0 **** 0.06
19589 H 85.25208298273624 181.50682839411564 98.54898447566426 H 0.0 **** 0.06
19590 H 83.54356646450007 181.9721864756849 98.36592745025884 H 0.0 **** 0.06
19591 C 68.85336895975587 94.03995902761848 199.20559146138493 C 0.0 **** -0.24
19592 H 68.04677057005762 93.58319230586626 199.7788107313509 H 0.0 **** 0.06
19593 H 69.80101086925941 93.88216267247485 199.72121367772988 H 0.0 **** 0.06
19594 H 68.66730411310056 95.10924720849859 199.10654202554025 H 0.0 **** 0.06
19595 H 68.89712288593483 93.58584822585273 198.2159273258148 H 0.0 **** 0.06
19596 C 180.17578810282077 54.65637939383578 114.24308345756627 C 0.0 **** -0.24
19597 H 179.25942644641222 55.23645784114092 114.35413503904307 H 0.0 **** 0.06
19598 H 179.96920837599782 53.75884408588888 113.66086244346432 H 0.0 **** 0.06
19599 H 180.54798270350065 54.37369952857216 115.2285323066336 H 0.0 **** 0.06
19600 H 180.9261362551004 55.25814192948053 113.73028657994045 H 0.0 **** 0.06
19601 C 149.48089479111235 207.86172225891002 97.9514739892811 C 0.0 **** -0.24
19602 H 149.52517967177664 207.58470043373356 99.00480057492275 H 0.0 **** 0.06
19603 H 149.98708098225632 207.1025080538174 97.35582018377501 H 0.0 **** 0.06
19604 H 149.97310709246034 208.82421869006095 97.808761610843 H 0.0 **** 0.06
19605 H 148.43928596345086 207.93623865640666 97.63901200145015 H 0.0 **** 0.06
19606 C 51.31176850711742 89.58230830778372 51.067318845283594 C 0.0 **** -0.24
19607 H 50.27250328489211 89.85357494111697 50.88324185411764 H 0.0 **** 0.06
19608 H 51.78082090425288 90.34219085143353 51.69271832797247 H 0.0 **** 0.06
19609 H 51.8422260860103 89.5149805084642 50.1167969448216 H 0.0 **** 0.06
19610 H 51.351929924105306 88.61797638270947 51.57415722302363 H 0.0 **** 0.06
19611 C 52.12972499508089 149.44217414417915 10.365517849613482 C 0.0 **** -0.24
19612 H 51.90196964737126 149.19760402450737 11.402878967920273 H 0.0 **** 0.06
19613 H 52.265240892446116 150.51956120902452 10.267943775318727 H 0.0 **** 0.06
19614 H 51.30584173643484 149.12036780435437 9.72835523606473 H 0.0 **** 0.06
19615 H 53.043795575032505 148.931671429319 10.063622046904158 H 0.0 **** 0.06
19616 C 91.17370254837017 166.61802873167002 128.9196504690628 C 0.0 **** -0.24
19617 H 90.36371963066462 166.04795759622846 129.3744599971924 H 0.0 **** 0.06
19618 H 91.62182306699607 167.2733335042497 129.66722843124677 H 0.0 **** 0.06
19619 H 90.77987765391909 167.2186087853508 128.09953176231926 H 0.0 **** 0.06
19620 H 91.92998948300284 165.93270601750143 128.53674971284528 H 0.0 **** 0.06
19621 C 122.76046911308758 47.57936216041196 95.94257974590573 C 0.0 **** -0.24
19622 H 123.7600944893059 48.00082147360666 96.04321409700378 H 0.0 **** 0.06
19623 H 122.82498557637133 46.59614656401118 95.47641040426123 H 0.0 **** 0.06
19624 H 122.1498692754917 48.23645166881022 95.32216425861697 H 0.0 **** 0.06
19625 H 122.30552388160258 47.48495746680544 96.92894110899323 H 0.0 **** 0.06
19626 C 178.53176691217078 198.29931320663275 96.07406970190384 C 0.0 **** -0.24
19627 H 178.5326132701224 199.3646735124431 95.84216487118685 H 0.0 **** 0.06
19628 H 177.92758615978028 197.76822335767207 95.33911438830548 H 0.0 **** 0.06
19629 H 178.11418892143962 198.14507021679464 97.06830047687852 H 0.0 **** 0.06
19630 H 179.55372782843529 197.92125444362685 96.0456867033392 H 0.0 **** 0.06
19631 C 48.25373267014531 146.7018540019709 44.02077573752133 C 0.0 **** -0.24
19632 H 48.5082485515088 145.682747181548 43.727836990583725 H 0.0 **** 0.06
19633 H 47.28475506060745 146.70565085113367 44.51949821069283 H 0.0 **** 0.06
19634 H 48.20842212139797 147.3336260762324 43.13234499873539 H 0.0 **** 0.06
19635 H 49.01515619377891 147.08555193131713 44.70038170135125 H 0.0 **** 0.06
19636 C 177.40131197734598 71.51294398471043 76.34474369758868 C 0.0 **** -0.24
19637 H 178.25149526125097 71.15943712179063 75.76130868018816 H 0.0 **** 0.06
19638 H 177.74925593642257 72.21210081935641 77.10569236377091 H 0.0 **** 0.06
19639 H 176.91237564053756 70.66541953923132 76.82446622066414 H 0.0 **** 0.06
19640 H 176.69326518964417 72.01552891108327 75.6864183513448 H 0.0 **** 0.06
19641 C 132.7470030414566 99.55162525823722 114.44849236858776 C 0.0 **** -0.24
19642 H 131.72377987755033 99.76464917831534 114.75637592930268 H 0.0 **** 0.06
19643 H 133.32823668254724 100.47313756887992 114.45560819099107 H 0.0 **** 0.06
19644 H 132.74321706060226 99.1318619015553 113.44241407511642 H 0.0 **** 0.06
19645 H 133.1915933092751 98.83534276333201 115.13900884795767 H 0.0 **** 0.06
19646 C 181.32639843474655 203.43949441388804 38.67514752585711 C 0.0 **** -0.24
19647 H 181.8885662881551 204.3723130808885 38.62741093773336 H 0.0 **** 0.06
19648 H 180.44081163751946 203.51703307955785 38.04434809818807 H 0.0 **** 0.06
19649 H 181.02451224242026 203.25003195648281 39.704816320331346 H 0.0 **** 0.06
19650 H 181.95309966029708 202.6191305352752 38.32313780488951 H 0.0 **** 0.06
19651 C 119.6116420605914 216.59136492655549 173.2087871956361 C 0.0 **** -0.24
19652 H 120.40479496167173 216.55671560717565 172.46296884623416 H 0.0 **** 0.06
19653 H 119.71694395159251 217.49523460800208 173.80911398452105 H 0.0 **** 0.06
19654 H 119.68193338763517 215.7162419392533 173.85487467030444 H 0.0 **** 0.06
19655 H 118.64303462960508 216.59777749580658 172.70950305760812 H 0.0 **** 0.06
19656 C 72.66204086706578 54.015126394325364 129.99574264071038 C 0.0 **** -0.24
19657 H 72.52957360853979 54.836134866059126 130.70017975420768 H 0.0 **** 0.06
19658 H 73.30695059035669 53.25642316665284 130.4389525183185 H 0.0 **** 0.06
19659 H 73.11804941075185 54.392570551943834 129.08062994373682 H 0.0 **** 0.06
19660 H 71.6911601530732 53.57567884318587 129.76328263604807 H 0.0 **** 0.06
19661 C 117.95197223733511 103.71278903199514 13.329201105874375 C 0.0 **** -0.24
19662 H 118.7732976644174 103.8706532778845 12.629831698457522 H 0.0 **** 0.06
19663 H 118.29499363834428 103.09452084402194 14.158776239932934 H 0.0 **** 0.06
19664 H 117.13079442013996 103.21095730508056 12.816505228470291 H 0.0 **** 0.06
19665 H 117.60993890189177 104.67507419372315 13.70952148857829 H 0.0 **** 0.06
19666 C 120.67857662329601 129.22898673710785 91.80473757714549 C 0.0 **** -0.24
19667 H 120.84157634443568 128.3356543592642 92.40638071436621 H 0.0 **** 0.06
19668 H 120.66490778030385 128.95773062678035 90.74906602604182 H 0.0 **** 0.06
19669 H 121.48306579705377 129.94184151440817 91.98714476315791 H 0.0 **** 0.06
19670 H 119.72411727363942 129.68138753696326 92.07674130680766 H 0.0 **** 0.06
19671 C 132.37976232858426 2.0470982483210918 120.84759946134757 C 0.0 **** -0.24
19672 H 132.97081486432182 2.2863611133878834 121.73220577789355 H 0.0 **** 0.06
19673 H 132.01369672167442 1.0224252957584739 120.92198677167637 H 0.0 **** 0.06
19674 H 133.00036641337732 2.1476665337879766 119.95831733941874 H 0.0 **** 0.06
19675 H 131.533677772884 2.730681031918067 120.78091640076165 H 0.0 **** 0.06
19676 C 9.203669113886406 10.885177712134748 74.49089913948875 C 0.0 **** -0.24
19677 H 8.592655040134048 11.519034028233023 73.84872852463185 H 0.0 **** 0.06
19678 H 9.950521031625499 11.49456286562662 74.99788636975272 H 0.0 **** 0.06
19679 H 9.701982319740608 10.128501321278861 73.884831547062 H 0.0 **** 0.06
19680 H 8.567192980815207 10.397842571804063 75.23041773501207 H 0.0 **** 0.06
19681 C 33.74227064924324 85.85275568397837 94.0285796690677 C 0.0 **** -0.24
19682 H 34.100978717909896 86.87269146099898 94.16755330490533 H 0.0 **** 0.06
19683 H 33.14618666007999 85.79951407717645 93.1164747521586 H 0.0 **** 0.06
19684 H 33.12910826691075 85.56317216544714 94.88182899444537 H 0.0 **** 0.06
19685 H 34.59412377099612 85.17702370909304 93.94593760594974 H 0.0 **** 0.06
19686 C 121.56914331668213 192.67757471123554 173.17277294213648 C 0.0 **** -0.24
19687 H 120.82910295278964 192.62146575533407 172.37365267362298 H 0.0 **** 0.06
19688 H 121.73970678844529 191.68159155504168 173.58024781807376 H 0.0 **** 0.06
19689 H 121.2023715052361 193.33562341126242 173.9607910196545 H 0.0 **** 0.06
19690 H 122.50388348546971 193.07338164368704 172.7742521212259 H 0.0 **** 0.06
19691 C 138.8631528350063 178.7440503650946 110.30493436350166 C 0.0 **** -0.24
19692 H 138.62593967787893 178.80869673091476 111.36666403513904 H 0.0 **** 0.06
19693 H 137.9396237836113 178.679473267142 109.7287459891884 H 0.0 **** 0.06
19694 H 139.46929226449322 177.85693083853653 110.12165569001009 H 0.0 **** 0.06
19695 H 139.41885864875707 179.63235700185857 110.00221910361178 H 0.0 **** 0.06
19696 C 38.95028812420789 157.336423232921 181.20575342890015 C 0.0 **** -0.24
19697 H 38.1438879299598 157.86423782348714 181.71469018105734 H 0.0 **** 0.06
19698 H 39.891054084599276 157.86122917724276 181.3748548227877 H 0.0 **** 0.06
19699 H 38.74291972079233 157.29772112423404 180.13708996351642 H 0.0 **** 0.06
19700 H 39.024814112817566 156.3219910682547 181.59822687572 H 0.0 **** 0.06
19701 C 114.2395053169768 94.93150162094402 211.91216988561314 C 0.0 **** -0.24
19702 H 115.2227308725959 95.07360738314482 212.35978532541824 H 0.0 **** 0.06
19703 H 114.0935996603843 93.87418204352547 211.68646427635628 H 0.0 **** 0.06
19704 H 114.17210326862023 95.51226350576745 210.99198960902888 H 0.0 **** 0.06
19705 H 113.47069455832927 95.26439250496212 212.6092837996742 H 0.0 **** 0.06
19706 C 19.86868219418085 143.21169302415979 198.5470603423247 C 0.0 **** -0.24
19707 H 19.31133325000512 144.0214382740117 198.07538149675787 H 0.0 **** 0.06
19708 H 20.50395263185517 143.61850303237247 199.3343075951469 H 0.0 **** 0.06
19709 H 20.488006772133488 142.71479512912617 197.7998550845121 H 0.0 **** 0.06
19710 H 19.171049487693935 142.4936570894402 198.9769023153726 H 0.0 **** 0.06
19711 C 170.7870140492765 19.631900121819058 61.62652488019279 C 0.0 **** -0.24
19712 H 171.5039839968234 19.6884909828527 62.4455759807139 H 0.0 **** 0.06
19713 H 170.87981054209666 20.521123380344875 61.00245040076845 H 0.0 **** 0.06
19714 H 169.77690955508072 19.574765790349005 62.03138745593742 H 0.0 **** 0.06
19715 H 170.98908947807513 18.74437362132113 61.02749286405583 H 0.0 **** 0.06
19716 C 78.96087285578584 22.758774530298396 132.7778290844862 C 0.0 **** -0.24
19717 H 79.22694783298193 23.13659747443384 131.7897440194173 H 0.0 **** 0.06
19718 H 77.87694307443586 22.774032129907383 132.89288374984915 H 0.0 **** 0.06
19719 H 79.41700738587834 23.388886607909157 133.54210993325512 H 0.0 **** 0.06
19720 H 79.3248763437888 21.73719733785734 132.8854935197333 H 0.0 **** 0.06
19721 C 105.59159861646923 15.800830383424369 112.680093412228 C 0.0 **** -0.24
19722 H 106.14444306760832 14.908781298400143 112.3850585244024 H 0.0 **** 0.06
19723 H 105.218619312587 16.308629075610682 111.78939475314833 H 0.0 **** 0.06
19724 H 106.25088580564311 16.47148551434681 113.23103735864636 H 0.0 **** 0.06
19725 H 104.75251191867314 15.514990596152089 113.31406049274658 H 0.0 **** 0.06
19726 C 156.45250228392143 96.95716404853736 126.25623517841935 C 0.0 **** -0.24
19727 H 156.94570243377177 97.90667066931071 126.46434795134645 H 0.0 **** 0.06
19728 H 156.30416679266875 96.85194895634807 125.18131215309593 H 0.0 **** 0.06
19729 H 155.48566743364137 96.93221463887794 126.76007747054759 H 0.0 **** 0.06
19730 H 157.07276238452403 96.13755138124257 126.61925256463671 H 0.0 **** 0.06
19731 C 190.53623069899484 131.46086111711594 50.78539589641258 C 0.0 **** -0.24
19732 H 190.5566552253369 131.03632294982071 49.78225069238516 H 0.0 **** 0.06
19733 H 191.3725858076083 131.0684083797551 51.363754882074545 H 0.0 **** 0.06
19734 H 189.59886425962 131.19290691252445 51.274291450170466 H 0.0 **** 0.06
19735 H 190.61547705618202 132.54642744682855 50.72219062805192 H 0.0 **** 0.06
19736 C 132.00136289832153 29.494569054650015 202.33477413764757 C 0.0 **** -0.24
19737 H 131.82210157625434 29.305443171227083 203.39290026701872 H 0.0 **** 0.06
19738 H 132.5806555920338 30.411743151465956 202.2231819914152 H 0.0 **** 0.06
19739 H 131.04764259427014 29.601986855307615 201.81837881522128 H 0.0 **** 0.06
19740 H 132.55557216757228 28.66070009534927 201.90505822572666 H 0.0 **** 0.06
19741 C 196.62835617913217 115.590492527139 186.0672465155348 C 0.0 **** -0.24
19742 H 195.66568420311688 115.29071610720531 185.65510348992817 H 0.0 **** 0.06
19743 H 196.50784428707948 115.85210997720908 187.11822240509298 H 0.0 **** 0.06
19744 H 197.00472195396551 116.45446175236047 185.51851786071686 H 0.0 **** 0.06
19745 H 197.33520617349228 114.76637851135233 185.9753754291195 H 0.0 **** 0.06
19746 C 160.73277206083804 101.99425823962493 66.32299589193224 C 0.0 **** -0.24
19747 H 160.89605437718265 101.44681766448325 65.3950622591571 H 0.0 **** 0.06
19748 H 161.10234170756664 101.40594130797551 67.16265450971508 H 0.0 **** 0.06
19749 H 159.66628914866413 102.18117562113703 66.4514024307793 H 0.0 **** 0.06
19750 H 161.2652082801996 102.94470857707618 66.281874457801 H 0.0 **** 0.06
19751 C 193.0208846938312 10.998890914948419 106.31303589719623 C 0.0 **** -0.24
19752 H 192.37062666705415 10.248782431083782 105.86303712395132 H 0.0 **** 0.06
19753 H 192.51954825920774 11.445352643593651 107.17129158561944 H 0.0 **** 0.06
19754 H 193.24483064328587 11.77283693611804 105.57892629775024 H 0.0 **** 0.06
19755 H 193.9481598392031 10.526335254865131 106.63801143574555 H 0.0 **** 0.06
19756 C 204.49672634229313 20.242812430209582 92.96665371582718 C 0.0 **** -0.24
19757 H 205.1042746788978 20.904964813340044 92.35044485283935 H 0.0 **** 0.06
19758 H 203.89919024532423 20.83746282327742 93.65821114163727 H 0.0 **** 0.06
19759 H 205.14714078327333 19.573275815012536 93.53006113807585 H 0.0 **** 0.06
19760 H 203.837627173615 19.65592636496197 92.32820313732286 H 0.0 **** 0.06
19761 C 119.7768948521216 104.7270340140334 149.3154185470566 C 0.0 **** -0.24
19762 H 118.9036823685393 105.25438242006977 148.93222050093567 H 0.0 **** 0.06
19763 H 120.54502729405881 104.68695037505269 148.54252010255925 H 0.0 **** 0.06
19764 H 119.4938355928577 103.71375328172074 149.59969612737189 H 0.0 **** 0.06
19765 H 120.16589016513511 105.2541346123475 150.18693604683273 H 0.0 **** 0.06
19766 C 24.854669333024418 66.77521034749476 13.540527109049492 C 0.0 **** -0.24
19767 H 25.914258488879057 66.96001538107106 13.36356367033305 H 0.0 **** 0.06
19768 H 24.74035789858806 65.9098930021226 14.194851918508974 H 0.0 **** 0.06
19769 H 24.356224310382913 66.58102297277954 12.590709251202156 H 0.0 **** 0.06
19770 H 24.40750173792577 67.65004466066326 14.013916193100812 H 0.0 **** 0.06
19771 C 45.93867320351018 103.67628302993676 92.97775821532849 C 0.0 **** -0.24
19772 H 46.40235566338373 104.63833635973462 93.19766300680101 H 0.0 **** 0.06
19773 H 46.366623979935355 103.26808188820131 92.06192684191308 H 0.0 **** 0.06
19774 H 44.864899640077056 103.81298757368423 92.84820766561654 H 0.0 **** 0.06
19775 H 46.121122428960234 102.9887916626747 93.80394829263912 H 0.0 **** 0.06
19776 C 171.8100497063889 72.36977340665631 191.82969739712144 C 0.0 **** -0.24
19777 H 172.3529848454678 71.93570652663733 190.98995248375803 H 0.0 **** 0.06
19778 H 170.8928206125105 71.8050247906876 191.99984129313998 H 0.0 **** 0.06
19779 H 171.5617775494556 73.40692173900943 191.60475205644653 H 0.0 **** 0.06
19780 H 172.43170290850122 72.33177446594301 192.72321655330316 H 0.0 **** 0.06
19781 C 171.33837739792693 170.5144264966685 34.88000021969603 C 0.0 **** -0.24
19782 H 171.93813666207438 171.15246613752186 35.529499555951645 H 0.0 **** 0.06
19783 H 171.18762231717187 171.01156676039926 33.92200826129681 H 0.0 **** 0.06
19784 H 170.37196829440524 170.32781239029384 35.348971185543064 H 0.0 **** 0.06
19785 H 171.85437176950398 169.56821736831498 34.722062879191526 H 0.0 **** 0.06
19786 C 42.86687550816134 200.43056561862844 69.97549737873477 C 0.0 **** -0.24
19787 H 43.05297326146473 199.38407681518112 69.73190558047237 H 0.0 **** 0.06
19788 H 41.83937996326512 200.6862809909298 69.71782378560077 H 0.0 **** 0.06
19789 H 43.55286073822862 201.0614845640585 69.41067291254393 H 0.0 **** 0.06
19790 H 43.02486135528886 200.5873219635742 71.0429214139934 H 0.0 **** 0.06
19791 C 104.15211223569874 16.57595822192458 136.91015480971606 C 0.0 **** -0.24
19792 H 104.49637880127504 16.029858011108033 136.0318745420626 H 0.0 **** 0.06
19793 H 103.1046312549616 16.33933539115222 137.09775644263487 H 0.0 **** 0.06
19794 H 104.25779655330253 17.646407842686287 136.73550498448918 H 0.0 **** 0.06
19795 H 104.75106798436595 16.2876226492496 137.77358676037898 H 0.0 **** 0.06
19796 C 64.35417515280375 214.88014233356694 151.96182177365324 C 0.0 **** -0.24
19797 H 63.81715066645762 214.01983752635192 151.5631345958967 H 0.0 **** 0.06
19798 H 63.82697972064335 215.79461640008867 151.69059439881687 H 0.0 **** 0.06
19799 H 65.36099668328143 214.904133932988 151.54474990037835 H 0.0 **** 0.06
19800 H 64.41250037088486 214.80211871554118 153.04735142160723 H 0.0 **** 0.06
19801 C 93.37939453518321 161.1795047081108 7.249853546211099 C 0.0 **** -0.24
19802 H 94.07839400015114 160.41454230349518 6.908666736228696 H 0.0 **** 0.06
19803 H 92.43088722376679 160.7123036260044 7.5149689321766004 H 0.0 **** 0.06
19804 H 93.21803267121369 161.90417818798974 6.4525275068746595 H 0.0 **** 0.06
19805 H 93.7933753314697 161.68515609610998 8.122281028766338 H 0.0 **** 0.06
19806 C 114.80679531930315 216.32329981683506 190.80837855337387 C 0.0 **** -0.24
19807 H 114.53521984436713 217.34865820494687 191.0597986754339 H 0.0 **** 0.06
19808 H 115.17671851637056 215.81791474096605 191.7008537078293 H 0.0 **** 0.06
19809 H 115.58486453433113 216.3304976125982 190.04573669282732 H 0.0 **** 0.06
19810 H 113.93062075318187 215.7974654903905 190.4303117460605 H 0.0 **** 0.06
19811 C 134.0536305580012 148.59374106901032 29.107543309324313 C 0.0 **** -0.24
19812 H 133.00260454512937 148.4969978010098 28.83449715034476 H 0.0 **** 0.06
19813 H 134.16121666281572 148.4747297472968 30.185934092645482 H 0.0 **** 0.06
19814 H 134.41679096773248 149.57722144676046 28.81217409876183 H 0.0 **** 0.06
19815 H 134.6328145045232 147.82435192044085 28.5973860555726 H 0.0 **** 0.06
19816 C 183.13752626841188 84.34653387561788 166.25558714625245 C 0.0 **** -0.24
19817 H 184.14859981699976 84.38961431753886 165.85153828868079 H 0.0 **** 0.06
19818 H 182.52497325049438 85.11557703691692 165.78357806196567 H 0.0 **** 0.06
19819 H 183.1699650654505 84.51764968330768 167.3313962532102 H 0.0 **** 0.06
19820 H 182.70752742364624 83.36554736391109 166.0558809187752 H 0.0 **** 0.06
19821 C 66.46571081632305 183.57775736120726 11.689416040031062 C 0.0 **** -0.24
19822 H 66.45651688728259 182.7477208344839 10.983857430456737 H 0.0 **** 0.06
19823 H 67.26080777972322 184.2741525151917 11.421207610732495 H 0.0 **** 0.06
19824 H 66.64071892310432 183.19705114578358 12.696431979787064 H 0.0 **** 0.06
19825 H 65.50566530584587 184.09275628348524 11.65707624932918 H 0.0 **** 0.06
19826 C 198.18445253445879 80.09679860108872 44.74616718281209 C 0.0 **** -0.24
19827 H 199.04528560351108 79.48228853566292 44.48150522192486 H 0.0 **** 0.06
19828 H 197.43704246599606 79.47956537232608 45.24472557306632 H 0.0 **** 0.06
19829 H 197.7555719496247 80.52913972791168 43.8426680323783 H 0.0 **** 0.06
19830 H 198.50114750063034 80.89640627478406 45.416423116717795 H 0.0 **** 0.06
19831 C 67.30417853754129 199.371028435997 213.2664685148022 C 0.0 **** -0.24
19832 H 67.89072459147715 199.23446933053225 214.17501156526322 H 0.0 **** 0.06
19833 H 67.48154761442763 198.53474160786593 212.59109775072133 H 0.0 **** 0.06
19834 H 67.59957416991031 200.30136692031596 212.78043469176583 H 0.0 **** 0.06
19835 H 66.24596662558741 199.41510877606655 213.52163628064298 H 0.0 **** 0.06
19836 C 20.50138452564954 175.2105395244661 29.723481373993906 C 0.0 **** -0.24
19837 H 20.67858376457113 174.64514384719936 30.638357482527823 H 0.0 **** 0.06
19838 H 19.903847665892727 174.61077937832445 29.03630918329884 H 0.0 **** 0.06
19839 H 21.456076656269772 175.45425969238357 29.2569306704425 H 0.0 **** 0.06
19840 H 19.968332129176304 176.1304726442408 29.962111468357847 H 0.0 **** 0.06
19841 C 195.67373398572005 157.8264172496825 156.89570068790033 C 0.0 **** -0.24
19842 H 196.7452647233975 157.98666761148462 156.7725022616114 H 0.0 **** 0.06
19843 H 195.12932602710208 158.67119200166613 156.47353871414703 H 0.0 **** 0.06
19844 H 195.44016548029185 157.73510196851652 157.95587302684737 H 0.0 **** 0.06
19845 H 195.38259376359997 156.91190368844656 156.37876117712852 H 0.0 **** 0.06
19846 C 82.04770224358937 84.43824256958759 8.767473113218841 C 0.0 **** -0.24
19847 H 82.05946684438707 83.65006320215817 8.014886899132676 H 0.0 **** 0.06
19848 H 82.33743648752316 85.38279548549089 8.307701448505185 H 0.0 **** 0.06
19849 H 82.74967209128052 84.19036986646135 9.563269307182736 H 0.0 **** 0.06
19850 H 81.043816609691 84.52773661058139 9.18313715460323 H 0.0 **** 0.06
19851 C 189.38357607157724 65.52221392489196 103.30669148700015 C 0.0 **** -0.24
19852 H 189.9493984091971 64.67090482848931 103.68376312967793 H 0.0 **** 0.06
19853 H 189.89009659859286 65.93788229425553 102.43507177899524 H 0.0 **** 0.06
19854 H 189.31237048576205 66.28391247615122 104.08354361531305 H 0.0 **** 0.06
19855 H 188.382438792757 65.196156100672 103.02438742401439 H 0.0 **** 0.06
19856 C 145.4372668340278 18.675244365303698 8.15590227802062 C 0.0 **** -0.24
19857 H 145.94811212352056 19.566921145879093 7.792358954964186 H 0.0 **** 0.06
19858 H 145.39413757768597 17.93079318421907 7.360738491660754 H 0.0 **** 0.06
19859 H 144.42539233694424 18.93776406374552 8.464608524806664 H 0.0 **** 0.06
19860 H 145.98190695680125 18.266615218895794 9.00777991854926 H 0.0 **** 0.06
19861 C 193.38641825994137 92.54049224648101 175.4503909581142 C 0.0 **** -0.24
19862 H 192.32601189305524 92.66214148623256 175.22870211910185 H 0.0 **** 0.06
19863 H 193.9610687197381 93.27523182800219 174.8858798919377 H 0.0 **** 0.06
19864 H 193.70243470785832 91.53664719301888 175.16915826877874 H 0.0 **** 0.06
19865 H 193.55368731884778 92.6895825573908 176.5173470426156 H 0.0 **** 0.06
19866 C 121.15635227828028 128.99085924981694 97.98492977071938 C 0.0 **** -0.24
19867 H 120.69777577032039 128.87579684693844 97.00280484667498 H 0.0 **** 0.06
19868 H 122.00829498931603 129.66699161592175 97.91032558533531 H 0.0 **** 0.06
19869 H 121.49368488562754 128.01787900506633 98.34365433086397 H 0.0 **** 0.06
19870 H 120.42493127867391 129.40148193762457 98.68097967249078 H 0.0 **** 0.06
19871 C 99.19258099426399 171.53394200887902 30.828375339874086 C 0.0 **** -0.24
19872 H 100.13346609097913 171.16266685424281 31.232873927897558 H 0.0 **** 0.06
19873 H 98.36263908664161 171.1328141839013 31.411785202730925 H 0.0 **** 0.06
19874 H 99.09348304381662 171.21747397300203 29.789381240510508 H 0.0 **** 0.06
19875 H 99.17943283191478 172.62292791008593 30.87999878478027 H 0.0 **** 0.06
19876 C 57.065124478361014 51.19670143490086 113.00334965071137 C 0.0 **** -0.24
19877 H 57.033301455087155 51.755344112360945 112.06745446112909 H 0.0 **** 0.06
19878 H 58.02140802925382 50.680576664248065 113.08579430229084 H 0.0 **** 0.06
19879 H 56.25548243353859 50.467564429930405 113.01835337551408 H 0.0 **** 0.06
19880 H 56.94931883070919 51.8858826467241 113.84058764974866 H 0.0 **** 0.06
19881 C 100.60696750169383 155.2624232400119 23.691084521621406 C 0.0 **** -0.24
19882 H 99.85006503824265 154.71505642833722 24.25274043826394 H 0.0 **** 0.06
19883 H 100.50449227460932 155.03967923540165 22.628690016413742 H 0.0 **** 0.06
19884 H 101.5982791415778 154.96353185105386 24.031455353579588 H 0.0 **** 0.06
19885 H 100.4748199565306 156.33262048898786 23.852177730640165 H 0.0 **** 0.06
19886 C 36.150183603464484 170.45942803049473 173.91148181145138 C 0.0 **** -0.24
19887 H 35.1633887389782 170.3682626983109 173.45710430143578 H 0.0 **** 0.06
19888 H 36.44882898643266 169.49622860700885 174.32613341899128 H 0.0 **** 0.06
19889 H 36.11487596112664 171.2030238656867 174.70784149493284 H 0.0 **** 0.06
19890 H 36.8712463899559 170.7698584590268 173.15523876498526 H 0.0 **** 0.06
19891 C 200.27454996539603 148.28955429257547 80.59481574459137 C 0.0 **** -0.24
19892 H 199.93661469191733 147.50972983845287 79.9130828855282 H 0.0 **** 0.06
19893 H 200.96395273599268 148.9538707376467 80.0730556180698 H 0.0 **** 0.06
19894 H 200.78157607779218 147.8340768091623 81.44557594813743 H 0.0 **** 0.06
19895 H 199.41583716781815 148.86129949729263 80.94693630866668 H 0.0 **** 0.06
19896 C 22.828631046257613 41.70583252209852 34.688515136327766 C 0.0 **** -0.24
19897 H 22.0000865110174 40.99827841267967 34.73030371078249 H 0.0 **** 0.06
19898 H 23.44133006838922 41.59931818873315 35.58388140060913 H 0.0 **** 0.06
19899 H 22.43696006337899 42.72154312054562 34.63370676450944 H 0.0 **** 0.06
19900 H 23.434875962583646 41.50239626833849 33.80576322899904 H 0.0 **** 0.06
19901 C 209.4519366319006 130.09073504366415 170.45794068888563 C 0.0 **** -0.24
19902 H 209.95191491167026 129.72241834957873 171.3531198051925 H 0.0 **** 0.06
19903 H 209.95856419373442 129.7039446747744 169.5735245724468 H 0.0 **** 0.06
19904 H 209.4810030448266 131.18011583141526 170.44681535374517 H 0.0 **** 0.06
19905 H 208.41421257416965 129.75519527750487 170.45787019101292 H 0.0 **** 0.06
19906 C 42.33940036747924 103.79714523064096 180.97419912678708 C 0.0 **** -0.24
19907 H 42.56225593671793 103.11102162402933 180.15673234569124 H 0.0 **** 0.06
19908 H 42.09530511722508 104.77867198526069 180.56744135984636 H 0.0 **** 0.06
19909 H 43.20849692515928 103.87913614767045 181.62652020621027 H 0.0 **** 0.06
19910 H 41.490462601880324 103.41868891122736 181.5444583997017 H 0.0 **** 0.06
19911 C 69.8888202057255 112.21520500358979 201.80446786327377 C 0.0 **** -0.24
19912 H 69.91274798953998 112.86372830558399 202.68041942039181 H 0.0 **** 0.06
19913 H 70.7322636300297 111.52519044515616 201.8415522156646 H 0.0 **** 0.06
19914 H 69.95444531956036 112.82237353453685 200.9020744667537 H 0.0 **** 0.06
19915 H 68.95685866487821 111.65081168612225 201.795636643766 H 0.0 **** 0.06
19916 C 180.8150738855095 2.484827296097876 11.04176733893982 C 0.0 **** -0.24
19917 H 181.2428412914953 1.757476691192636 11.731659561263427 H 0.0 **** 0.06
19918 H 180.8359662987947 3.473624093382739 11.498553410844664 H 0.0 **** 0.06
19919 H 179.7844261044182 2.2087610972429275 10.817048055963696 H 0.0 **** 0.06
19920 H 181.3966173825578 2.4961729255229557 10.119523560348043 H 0.0 **** 0.06
19921 C 171.60722312520042 107.2023914165872 159.43762883554336 C 0.0 **** -0.24
19922 H 171.10031176834704 107.16056257140684 160.4010069226377 H 0.0 **** 0.06
19923 H 171.20362119297118 106.43117386701357 158.78119367785206 H 0.0 **** 0.06
19924 H 172.674418339762 107.035430666097 159.5817767085118 H 0.0 **** 0.06
19925 H 171.45054119972127 108.1823985618314 158.9865380331721 H 0.0 **** 0.06
19926 C 99.85487619985746 153.3256721647383 211.09311625289342 C 0.0 **** -0.24
19927 H 100.33206323391109 154.10968828704347 210.5055438036141 H 0.0 **** 0.06
19928 H 100.61235001745742 152.63136700627348 211.45461711352203 H 0.0 **** 0.06
19929 H 99.13797103183337 152.7900703714539 210.46994785374682 H 0.0 **** 0.06
19930 H 99.33581717519102 153.77271610868996 211.94063236982333 H 0.0 **** 0.06
19931 C 21.60118822811387 12.721748787889979 74.81133278628329 C 0.0 **** -0.24
19932 H 21.65520933445734 12.43555308434216 73.76134999488505 H 0.0 **** 0.06
19933 H 21.097116512045815 11.937496782846992 75.37652181870396 H 0.0 **** 0.06
19934 H 21.04339872643672 13.65399995546943 74.90563435664399 H 0.0 **** 0.06
19935 H 22.608949591075643 12.860489515185279 75.20266024546731 H 0.0 **** 0.06
19936 C 207.48787360766147 186.70538855551882 16.818436490294857 C 0.0 **** -0.24
19937 H 206.8302031572759 186.3788642489357 17.623518833327893 H 0.0 **** 0.06
19938 H 208.32066341728785 187.27217119793744 17.237629460896244 H 0.0 **** 0.06
19939 H 206.92940905039836 187.33691395189152 16.126781832630797 H 0.0 **** 0.06
19940 H 207.87212637241345 185.83473769123364 16.286760812497334 H 0.0 **** 0.06
19941 C 137.60773660130593 142.088793917582 154.92052454620944 C 0.0 **** -0.24
19942 H 136.63258644013808 141.85786374881513 155.34941096296103 H 0.0 **** 0.06
19943 H 137.75853851561004 141.49246592631124 154.01969555267175 H 0.0 **** 0.06
19944 H 138.38743079232734 141.85599648711906 155.64567519202194 H 0.0 **** 0.06
19945 H 137.6511715896799 143.1481648574205 154.66752899042154 H 0.0 **** 0.06
19946 C 61.77733322909546 21.743234149930572 196.50051825556324 C 0.0 **** -0.24
19947 H 62.15289072844686 22.361096441591215 197.3160572714742 H 0.0 **** 0.06
19948 H 61.00803452625132 21.07037215802444 196.88073582447868 H 0.0 **** 0.06
19949 H 62.59598686930633 21.160467985076963 196.07952308546587 H 0.0 **** 0.06
19950 H 61.350717060099896 22.382687160145025 195.72755989109032 H 0.0 **** 0.06
19951 C 17.21352615075284 50.10969380846896 201.05854149487982 C 0.0 **** -0.24
19952 H 18.075233159882657 50.74475866700031 201.2638285880321 H 0.0 **** 0.06
19953 H 17.547106242905443 49.083115298151654 200.90744543710525 H 0.0 **** 0.06
19954 H 16.707133703614943 50.4637966345619 200.1608472220416 H 0.0 **** 0.06
19955 H 16.525133665732028 50.14778670341727 201.90257635687985 H 0.0 **** 0.06
19956 C 27.107054044510903 170.2338728085658 14.952912947875419 C 0.0 **** -0.24
19957 H 26.342681386008337 170.9766047274028 15.18433225461628 H 0.0 **** 0.06
19958 H 27.502641845241527 170.41960621083186 13.953872133774126 H 0.0 **** 0.06
19959 H 26.66769306759619 169.23644926522707 14.990680187950261 H 0.0 **** 0.06
19960 H 27.913033612574907 170.30328282357604 15.682445878960905 H 0.0 **** 0.06
19961 C 142.36116404152676 143.1710207142484 206.61350339815556 C 0.0 **** -0.24
19962 H 142.41756860332612 142.36669314740197 207.3466376416166 H 0.0 **** 0.06
19963 H 141.32749348561606 143.5007607554527 206.51449428166228 H 0.0 **** 0.06
19964 H 142.72205013825476 142.8100481201468 205.65083723900088 H 0.0 **** 0.06
19965 H 142.9792994350102 144.00598689573542 206.94364617079694 H 0.0 **** 0.06
19966 C 182.76184989318023 112.53614140006901 77.0518289443649 C 0.0 **** -0.24
19967 H 182.85304804136337 112.90621093083122 78.07399997248217 H 0.0 **** 0.06
19968 H 183.6665067954931 111.99204123712776 76.78116304001196 H 0.0 **** 0.06
19969 H 182.62454337645437 113.3773079441264 76.37214452709856 H 0.0 **** 0.06
19970 H 181.9020000544783 111.86989358447885 76.9834020745958 H 0.0 **** 0.06
19971 C 131.600572537024 12.477745567693006 60.347740535558614 C 0.0 **** -0.24
19972 H 131.17654015954707 13.345576739612852 59.842761591669955 H 0.0 **** 0.06
19973 H 132.4519710272774 12.789622918839001 60.952207454046174 H 0.0 **** 0.06
19974 H 131.9279491000675 11.749457898076457 59.60524958885077 H 0.0 **** 0.06
19975 H 130.8446630245213 12.026743763004532 60.99006312234326 H 0.0 **** 0.06
19976 C 118.80469164905547 135.9685745780509 1.1453829819773915 C 0.0 **** -0.24
19977 H 117.77675182837332 136.29504201398447 0.9901287963485004 H 0.0 **** 0.06
19978 H 119.13234285006364 136.2635844854846 2.142799645513307 H 0.0 **** 0.06
19979 H 119.44994350115049 136.432106751473 0.3994050323521705 H 0.0 **** 0.06
19980 H 118.860153191169 134.88459821150718 1.0500657489523846 H 0.0 **** 0.06
19981 C 205.27094701037174 178.16444485369033 62.35851315639087 C 0.0 **** -0.24
19982 H 205.45953223798614 179.23189871314395 62.47352189088235 H 0.0 **** 0.06
19983 H 204.60250300919188 178.00364672392735 61.51280829545364 H 0.0 **** 0.06
19984 H 204.80853544372562 177.77710539069687 63.266881383008354 H 0.0 **** 0.06
19985 H 206.21344847446994 177.64612446320626 62.18181821854709 H 0.0 **** 0.06
19986 C 10.863462017900133 33.6748390202263 125.8671867404352 C 0.0 **** -0.24
19987 H 10.594695719270646 33.044868361951785 126.71488230845371 H 0.0 **** 0.06
19988 H 10.73114543387328 34.72275558903385 126.13775528191975 H 0.0 **** 0.06
19989 H 10.22413949121605 33.43380696343036 125.01860240686712 H 0.0 **** 0.06
19990 H 11.905294103766835 33.4972705095463 125.59938742190961 H 0.0 **** 0.06
19991 C 162.83199562647562 130.25701763282814 154.36032233093476 C 0.0 **** -0.24
19992 H 162.6427894531938 130.357712696661 155.42916594401584 H 0.0 **** 0.06
19993 H 163.69079795887487 129.60309249859432 154.20474395606487 H 0.0 **** 0.06
19994 H 163.0397782803829 131.23765232956174 153.9337416531041 H 0.0 **** 0.06
19995 H 161.95543430635212 129.82684704658863 153.87527525569539 H 0.0 **** 0.06
19996 C 176.95311970293528 125.31768055056877 95.35377143556092 C 0.0 **** -0.24
19997 H 176.79956461782172 124.53605094214667 96.0976720502325 H 0.0 **** 0.06
19998 H 176.07022074769202 125.39175546818679 94.71822797378111 H 0.0 **** 0.06
19999 H 177.82159671050485 125.07092123186796 94.74283226716777 H 0.0 **** 0.06
20000 H 177.12033671296865 126.26967192567365 95.8561866081681 H 0.0 **** 0.06
20001 C 175.26568426870858 123.1987220687543 170.1343357440433 C 0.0 **** -0.24
20002 H 174.34675629829295 123.76982186481327 170.00018078549687 H 0.0 **** 0.06
20003 H 175.01864667231908 122.16967275639972 170.39290692146201 H 0.0 **** 0.06
20004 H 175.8548851412175 123.64356255204594 170.9365784890596 H 0.0 **** 0.06
20005 H 175.84146912489615 123.21431076286608 169.20905204398798 H 0.0 **** 0.06
20006 C 196.71877936955022 29.472043144596682 155.17103165767503 C 0.0 **** -0.24
20007 H 195.75858178856768 28.98448632724174 155.34208459203649 H 0.0 **** 0.06
20008 H 197.49520901678062 28.9537946918619 155.73445130034253 H 0.0 **** 0.06
20009 H 196.6617300561302 30.510559700568535 155.4995996156755 H 0.0 **** 0.06
20010 H 196.95827548916 29.43981441693012 154.1078434966641 H 0.0 **** 0.06
20011 C 71.16597135570754 184.8902863735711 105.9867544360237 C 0.0 **** -0.24
20012 H 72.04605190736464 184.24791407041477 105.99929120152727 H 0.0 **** 0.06
20013 H 70.28115493208497 184.2984102305556 106.21944447003769 H 0.0 **** 0.06
20014 H 71.05642863310584 185.33691899283127 104.99871150915682 H 0.0 **** 0.06
20015 H 71.28139306604038 185.67822080798643 106.73033985493221 H 0.0 **** 0.06
20016 C 72.63483040541264 25.214857208686 10.350861118964929 C 0.0 **** -0.24
20017 H 72.99789370141325 24.19893909864004 10.18949010338531 H 0.0 **** 0.06
20018 H 72.89115727745254 25.53571236963495 11.36085054844483 H 0.0 **** 0.06
20019 H 71.55269582667093 25.23794269227824 10.224552210237505 H 0.0 **** 0.06
20020 H 73.09917127413506 25.884791957627726 9.626740868001264 H 0.0 **** 0.06
20021 C 146.21720904628853 122.9596692501106 170.35456576835918 C 0.0 **** -0.24
20022 H 145.672268421046 123.70929976576515 170.92785795616396 H 0.0 **** 0.06
20023 H 146.7469721061716 122.2949109342204 171.0369033820714 H 0.0 **** 0.06
20024 H 146.93309089734407 123.45426744612753 169.69863061608442 H 0.0 **** 0.06
20025 H 145.5147441845195 122.38040166791679 169.75394413134154 H 0.0 **** 0.06
20026 C 81.64522608226044 34.74298747476334 12.658854565503475 C 0.0 **** -0.24
20027 H 81.13359705417035 34.3466444648524 11.781594570722461 H 0.0 **** 0.06
20028 H 82.64974204256158 34.32370230053104 12.714142552924613 H 0.0 **** 0.06
20029 H 81.08750984404925 34.47327895326535 13.555836757195948 H 0.0 **** 0.06
20030 H 81.70721300545374 35.82863577649795 12.582936680562682 H 0.0 **** 0.06
20031 C 26.310764946038972 211.06584859590998 131.02785774719325 C 0.0 **** -0.24
20032 H 26.062277399572224 212.08262710339238 131.33202306837666 H 0.0 **** 0.06
20033 H 25.600269206224993 210.72900784861193 130.27278936865417 H 0.0 **** 0.06
20034 H 26.263005909663605 210.40550886909094 131.8936040448723 H 0.0 **** 0.06
20035 H 27.317968282321146 211.04842664532063 130.6119887233246 H 0.0 **** 0.06
20036 C 171.54254454019238 71.59351081457822 95.1709351249259 C 0.0 **** -0.24
20037 H 170.874602148707 72.43175129942557 94.97766082561714 H 0.0 **** 0.06
20038 H 172.03632903992568 71.7364918829744 96.13250957963442 H 0.0 **** 0.06
20039 H 172.29336585570846 71.53669165256167 94.38183494261915 H 0.0 **** 0.06
20040 H 170.9670575345962 70.66838911471359 95.19142103517305 H 0.0 **** 0.06
20041 C 207.34092482243165 126.45687602373137 61.18883541448059 C 0.0 **** -0.24
20042 H 206.88844259347135 126.6227286346553 60.21059112017457 H 0.0 **** 0.06
20043 H 207.7273773515793 125.43924930232568 61.24164098619514 H 0.0 **** 0.06
20044 H 206.589810080514 126.60108110115833 61.965219772034686 H 0.0 **** 0.06
20045 H 208.15597731312226 127.16443845876562 61.33661549579466 H 0.0 **** 0.06
20046 C 182.645817296495 122.50033535000027 88.45675779654789 C 0.0 **** -0.24
20047 H 183.23737626063055 123.39370251450872 88.66245484616366 H 0.0 **** 0.06
20048 H 182.0833197282215 122.22501308816128 89.34873776825964 H 0.0 **** 0.06
20049 H 183.3098056128654 121.68274515671645 88.17779559094089 H 0.0 **** 0.06
20050 H 181.9550780153794 122.70317637476002 87.63893759394489 H 0.0 **** 0.06
20051 C 160.70833770899048 136.36588715427786 131.75489060128905 C 0.0 **** -0.24
20052 H 160.32666140165315 137.01810187963798 132.54018180779195 H 0.0 **** 0.06
20053 H 161.20779122744102 135.5076925529553 132.2059564146976 H 0.0 **** 0.06
20054 H 161.41872929968127 136.91689972351895 131.13868278646368 H 0.0 **** 0.06
20055 H 159.88091437899277 136.02085259654893 131.13594318745277 H 0.0 **** 0.06
20056 C 102.86561829404992 79.63014607969312 95.6452343550004 C 0.0 **** -0.24
20057 H 103.03158955991755 78.98366177260893 96.5076036113747 H 0.0 **** 0.06
20058 H 103.26310661910738 79.15025993229084 94.75044920334149 H 0.0 **** 0.06
20059 H 103.37260588899112 80.58179927409672 95.8021448366015 H 0.0 **** 0.06
20060 H 101.79683901520035 79.80340312512153 95.52044660645701 H 0.0 **** 0.06
20061 C 39.98009447415838 26.297085948825867 48.12185887772466 C 0.0 **** -0.24
20062 H 39.71775251178826 26.69303882498687 49.102811041362486 H 0.0 **** 0.06
20063 H 40.290506088751 27.114461000293574 47.471223967800086 H 0.0 **** 0.06
20064 H 39.112820732465366 25.797767932070713 47.68839269294847 H 0.0 **** 0.06
20065 H 40.79711647834333 25.583062164867272 48.22451955056863 H 0.0 **** 0.06
20066 C 185.806319884108 186.09973543436803 76.30990321402072 C 0.0 **** -0.24
20067 H 185.8848098788034 185.29866900954113 77.04429685856621 H 0.0 **** 0.06
20068 H 184.75545065346742 186.28856251998857 76.08940981977133 H 0.0 **** 0.06
20069 H 186.32330120674345 185.8069046493412 75.39562448519081 H 0.0 **** 0.06
20070 H 186.26214721318732 187.00609945058707 76.70990555491494 H 0.0 **** 0.06
20071 C 206.22290804549965 103.63261616131409 138.24374604097807 C 0.0 **** -0.24
20072 H 205.82396117690172 104.1082492300006 137.34769988159366 H 0.0 **** 0.06
20073 H 206.89913229291614 102.82706117789517 137.9563820140482 H 0.0 **** 0.06
20074 H 205.40255539572414 103.22563714795835 138.83437091199585 H 0.0 **** 0.06
20075 H 206.7657300529303 104.37004869141272 138.83524555271777 H 0.0 **** 0.06
20076 C 91.12236821367593 5.448569087912929 72.25943296186584 C 0.0 **** -0.24
20077 H 91.78319922118654 6.107744058285135 72.8221370317341 H 0.0 **** 0.06
20078 H 91.71957681148307 4.731597997300312 71.69537224208237 H 0.0 **** 0.06
20079 H 90.51862807385776 6.039931366161667 71.5724347060587 H 0.0 **** 0.06
20080 H 90.46898011368118 4.914120782540152 72.94962941956645 H 0.0 **** 0.06
20081 C 100.99905451420169 93.21196643379217 144.14091225686707 C 0.0 **** -0.24
20082 H 101.22946385375381 93.299174767559 145.2024886184915 H 0.0 **** 0.06
20083 H 100.445724673041 94.09324596527416 143.81580209387658 H 0.0 **** 0.06
20084 H 100.39465634746348 92.32089058692553 143.97126312573465 H 0.0 **** 0.06
20085 H 101.92691319292662 93.1358834820946 143.57312461150372 H 0.0 **** 0.06
20086 C 73.56843675751925 61.683999182261914 24.42007406397653 C 0.0 **** -0.24
20087 H 74.5626377336814 62.105534104033495 24.565857647220156 H 0.0 **** 0.06
20088 H 72.82348254333148 62.47648058367395 24.49202255123089 H 0.0 **** 0.06
20089 H 73.37597285402505 60.93355037646484 25.187084089640663 H 0.0 **** 0.06
20090 H 73.51121557916026 61.21979730676492 23.434695192798884 H 0.0 **** 0.06
20091 C 63.74491790848465 78.81066288394612 25.220551119901984 C 0.0 **** -0.24
20092 H 62.80710954324569 78.28222052111676 25.05126360143015 H 0.0 **** 0.06
20093 H 63.546462932025435 79.73812188328202 25.7577071154073 H 0.0 **** 0.06
20094 H 64.21211729158296 79.03721101488986 24.262604460009413 H 0.0 **** 0.06
20095 H 64.41262057966304 78.18389600043946 25.81193387099927 H 0.0 **** 0.06
20096 C 119.93331243649789 97.38048276276503 209.9201281251875 C 0.0 **** -0.24
20097 H 120.43551326947664 97.63317309681632 210.85397771458247 H 0.0 **** 0.06
20098 H 119.0957296162648 96.71451106492249 210.1272050454382 H 0.0 **** 0.06
20099 H 120.63705005809129 96.8852153951115 209.25182451508002 H 0.0 **** 0.06
20100 H 119.56502426938312 98.29234922905412 209.44891529799247 H 0.0 **** 0.06
20101 C 119.47199185083893 32.07055847368086 14.07448305393632 C 0.0 **** -0.24
20102 H 120.29186631470434 31.36427854852974 14.207973428413823 H 0.0 **** 0.06
20103 H 119.56000350278516 32.54856208821889 13.098301386281605 H 0.0 **** 0.06
20104 H 119.51507192993925 32.82847293526049 14.856380684560122 H 0.0 **** 0.06
20105 H 118.52214405143921 31.538770900868045 14.134917162740322 H 0.0 **** 0.06
20106 C 39.40967578381316 113.24245698084918 30.93430546018203 C 0.0 **** -0.24
20107 H 38.46858656721662 113.4381451595409 30.420683659812596 H 0.0 **** 0.06
20108 H 40.215927802377394 113.18093932405488 30.202923611874837 H 0.0 **** 0.06
20109 H 39.33836837962673 112.30005394936698 31.476173428823984 H 0.0 **** 0.06
20110 H 39.61588274754331 114.05015635924092 31.636132738111087 H 0.0 **** 0.06
20111 C 191.37496230909977 57.66694414695675 51.35050074796442 C 0.0 **** -0.24
20112 H 191.84969532234902 56.712329794272705 51.57830361909765 H 0.0 **** 0.06
20113 H 190.36509431611677 57.48970029182334 50.97829056834354 H 0.0 **** 0.06
20114 H 191.95625006467623 58.18800191263793 50.58921991871483 H 0.0 **** 0.06
20115 H 191.32914494800957 58.27493298454726 52.25374294741408 H 0.0 **** 0.06
20116 C 84.88394662205172 166.05500714082538 180.99911990610252 C 0.0 **** -0.24
20117 H 85.79636536208329 166.48255888267974 180.5851082347616 H 0.0 **** 0.06
20118 H 84.97696132238588 165.97964281119997 182.0822993056671 H 0.0 **** 0.06
20119 H 84.72363144789767 165.06285918643 180.57727323173873 H 0.0 **** 0.06
20120 H 84.03726039988709 166.69603500382993 180.750614611937 H 0.0 **** 0.06
20121 C 131.3820959174363 103.9045853683117 122.89561797990278 C 0.0 **** -0.24
20122 H 130.66866901865865 104.71089869822924 123.06756570636064 H 0.0 **** 0.06
20123 H 132.34662292578184 104.32755522050235 122.61308779240771 H 0.0 **** 0.06
20124 H 131.01834257049774 103.261447592823 122.09412097740092 H 0.0 **** 0.06
20125 H 131.49552703416975 103.31960734692348 123.80871339927982 H 0.0 **** 0.06
20126 C 63.69935178996832 18.171337208996277 205.65019551114273 C 0.0 **** -0.24
20127 H 63.417458068206145 18.239113608419473 204.59901929295708 H 0.0 **** 0.06
20128 H 63.2568318304248 19.0034378581542 206.1987296930598 H 0.0 **** 0.06
20129 H 64.78464561564994 18.212825985817915 205.73820753819462 H 0.0 **** 0.06
20130 H 63.336446206216635 17.230464248207596 206.06244752765616 H 0.0 **** 0.06
20131 C 123.80603280318762 122.43480103488493 168.49032313742765 C 0.0 **** -0.24
20132 H 122.90699547517345 122.86305612911436 168.93489778172463 H 0.0 **** 0.06
20133 H 124.66276357671761 122.64083322722014 169.1314075644777 H 0.0 **** 0.06
20134 H 123.97124201418187 122.87715325064441 167.50792781479618 H 0.0 **** 0.06
20135 H 123.68039016033613 121.3568123238088 168.38623946183696 H 0.0 **** 0.06
20136 C 129.87437971146034 10.54730859364713 13.27526788875511 C 0.0 **** -0.24
20137 H 130.64932404052786 9.794141323601878 13.129942389681617 H 0.0 **** 0.06
20138 H 129.6382456646714 11.015162486049036 12.319466870937305 H 0.0 **** 0.06
20139 H 130.23183604955386 11.304733100466052 13.973143397837418 H 0.0 **** 0.06
20140 H 128.97923701437105 10.074186585244092 13.679828471852716 H 0.0 **** 0.06
20141 C 113.55594378110163 19.76570924687782 17.539160578169742 C 0.0 **** -0.24
20142 H 113.96897283455269 19.48664293643573 18.507752911037926 H 0.0 **** 0.06
20143 H 113.76462088085447 18.97785110749578 16.81450784844381 H 0.0 **** 0.06
20144 H 114.01266550403392 20.69719396570568 17.204785605392544 H 0.0 **** 0.06
20145 H 112.47868285816787 19.90148271367451 17.62836027329837 H 0.0 **** 0.06
20146 C 180.7533760759251 189.52607603461715 89.79077115018737 C 0.0 **** -0.24
20147 H 180.91170459689704 190.57074041188724 90.05801925601196 H 0.0 **** 0.06
20148 H 181.71751107871594 189.02635024968373 89.68879076138319 H 0.0 **** 0.06
20149 H 180.21238849926726 189.47044578696983 88.84625177488357 H 0.0 **** 0.06
20150 H 180.17132271821487 189.03606278405977 90.57180319396423 H 0.0 **** 0.06
20151 C 50.35103163285315 117.55031032760563 85.24679164579736 C 0.0 **** -0.24
20152 H 49.87043543163881 117.55473676495252 86.22500932673351 H 0.0 **** 0.06
20153 H 50.59611137438131 118.57309674186597 84.9588714765015 H 0.0 **** 0.06
20154 H 49.673715901766926 117.1174872767818 84.51085093014338 H 0.0 **** 0.06
20155 H 51.26419119090998 116.95752135596105 85.29396136920941 H 0.0 **** 0.06
20156 C 64.6980417476704 87.07324385222005 72.43780492226209 C 0.0 **** -0.24
20157 H 64.91739952266335 86.01376805562755 72.3075385385528 H 0.0 **** 0.06
20158 H 63.621243522559496 87.21216705137549 72.52894792431617 H 0.0 **** 0.06
20159 H 65.0658520620438 87.62927735030131 71.5752242216298 H 0.0 **** 0.06
20160 H 65.18988284132627 87.43686019134988 73.34102453240511 H 0.0 **** 0.06
20161 C 111.9489700681347 204.4162735251527 160.15887178344818 C 0.0 **** -0.24
20162 H 112.049092206812 203.58566598226307 159.4593427822189 H 0.0 **** 0.06
20163 H 112.117591649797 205.35589550924098 159.63231083339124 H 0.0 **** 0.06
20164 H 112.68329423380375 204.30906760263358 160.95669697238745 H 0.0 **** 0.06
20165 H 110.94509269657006 204.41285497006248 160.5845379528335 H 0.0 **** 0.06
20166 C 202.02346141869282 110.09352133586454 50.95789743201932 C 0.0 **** -0.24
20167 H 202.98159456342586 109.62856271850636 51.19304530349116 H 0.0 **** 0.06
20168 H 201.4011095590711 109.38592406668208 50.41051329233292 H 0.0 **** 0.06
20169 H 202.1916890697243 110.98059781933382 50.346089512414736 H 0.0 **** 0.06
20170 H 201.52230929769388 110.38027295340801 51.882410924706335 H 0.0 **** 0.06
20171 C 27.840296902049772 76.75728877689858 61.94323230099752 C 0.0 **** -0.24
20172 H 26.939303050385362 77.26118618946134 61.59102832392958 H 0.0 **** 0.06
20173 H 28.004927374756846 75.85486693504157 61.353993153371775 H 0.0 **** 0.06
20174 H 27.72004425223281 76.49044618616944 62.99326109619396 H 0.0 **** 0.06
20175 H 28.69565778087754 77.42437045606079 61.8334281706706 H 0.0 **** 0.06
20176 C 48.4572174912401 109.42496047497833 107.33872300673748 C 0.0 **** -0.24
20177 H 49.10924155628436 109.81654672985802 106.5590384993166 H 0.0 **** 0.06
20178 H 47.80363654254825 110.22036233196194 107.69902980983231 H 0.0 **** 0.06
20179 H 49.06244049523872 109.05063989761858 108.16388865314447 H 0.0 **** 0.06
20180 H 47.85343800872823 108.61357824496228 106.9335140079114 H 0.0 **** 0.06
20181 C 108.24458384000957 200.05012920384408 210.08666019719016 C 0.0 **** -0.24
20182 H 109.01239233502821 199.55513601128763 209.49225209915838 H 0.0 **** 0.06
20183 H 107.7081106618092 199.3078554040519 210.67771964619538 H 0.0 **** 0.06
20184 H 107.54656365666074 200.56116027590798 209.4239504608471 H 0.0 **** 0.06
20185 H 108.71257657921433 200.77592175324173 210.75095989666715 H 0.0 **** 0.06
20186 C 30.797168218185433 37.63635816300808 62.819675683566004 C 0.0 **** -0.24
20187 H 31.11204431006145 37.897236065864405 63.829201252067605 H 0.0 **** 0.06
20188 H 29.87508772357421 38.16699276466852 62.57857684764349 H 0.0 **** 0.06
20189 H 30.62543882500863 36.56224359455189 62.7587574922085 H 0.0 **** 0.06
20190 H 31.57546001302778 37.920447699448715 62.11099439856156 H 0.0 **** 0.06
20191 C 207.32399492700296 112.59477057985409 52.05192646241147 C 0.0 **** -0.24
20192 H 207.7724331892561 113.17518730925862 51.245592981331114 H 0.0 **** 0.06
20193 H 206.46567232505114 113.13348697747703 52.45275071559382 H 0.0 **** 0.06
20194 H 208.0594323128768 112.44354180303507 52.842702575795045 H 0.0 **** 0.06
20195 H 207.0004757123172 111.62808659142398 51.667271417015925 H 0.0 **** 0.06
20196 C 197.2817326261333 8.364907634052742 157.67594874981216 C 0.0 **** -0.24
20197 H 197.5429603397901 7.8742127808158955 158.6125936927661 H 0.0 **** 0.06
20198 H 196.35299550788346 8.921827934542137 157.80388739657548 H 0.0 **** 0.06
20199 H 197.1514587998022 7.614353884759453 156.89637005892598 H 0.0 **** 0.06
20200 H 198.07977467528508 9.05096206571244 157.38996734831346 H 0.0 **** 0.06
20201 C 84.23949452884914 69.95608231455755 87.86171071369976 C 0.0 **** -0.24
20202 H 84.21226928693038 70.7676166298444 88.58765144664547 H 0.0 **** 0.06
20203 H 83.78989081397181 70.2907557974449 86.92594935264769 H 0.0 **** 0.06
20204 H 83.68078593277183 69.10317302359972 88.24890137326874 H 0.0 **** 0.06
20205 H 85.2740699274592 69.66192883614262 87.6831816592565 H 0.0 **** 0.06
20206 C 124.71066775823876 73.26166200601853 215.2793416554538 C 0.0 **** -0.24
20207 H 123.73855165688029 72.99162561026884 215.6899713435338 H 0.0 **** 0.06
20208 H 124.63526241147439 74.22310846440155 214.76955649555714 H 0.0 **** 0.06
20209 H 125.03075313214096 72.49818918890065 214.57027695610518 H 0.0 **** 0.06
20210 H 125.4385766984358 73.33478357145742 216.0867522890788 H 0.0 **** 0.06
20211 C 78.96252463824675 145.96920163528728 78.21545488548928 C 0.0 **** -0.24
20212 H 77.9768027251609 146.04561204346174 77.75676229500858 H 0.0 **** 0.06
20213 H 79.00070182203967 145.08356794895525 78.85031363009635 H 0.0 **** 0.06
20214 H 79.15164011045704 146.85717801075424 78.81944780590523 H 0.0 **** 0.06
20215 H 79.7210116528538 145.8912098323283 77.43594165297854 H 0.0 **** 0.06
20216 C 146.83740252462297 4.6345665847934825 119.09632104704092 C 0.0 **** -0.24
20217 H 146.24400664563018 5.507624678723708 119.36759955585303 H 0.0 **** 0.06
20218 H 147.89707794604777 4.891779028901382 119.13098995614105 H 0.0 **** 0.06
20219 H 146.5729408411077 4.315036245106022 118.08896287105365 H 0.0 **** 0.06
20220 H 146.63660845617676 3.8265980827465995 119.79923837045145 H 0.0 **** 0.06
20221 C 52.85882777900237 186.78638541878337 95.05715873791287 C 0.0 **** -0.24
20222 H 53.76130594069791 187.39743820012143 95.07221869629576 H 0.0 **** 0.06
20223 H 52.18536684389129 187.15294361215163 94.28203577537569 H 0.0 **** 0.06
20224 H 52.363775363755636 186.84668779633355 96.02604307312744 H 0.0 **** 0.06
20225 H 53.12525843654005 185.75081863162282 94.84775659852555 H 0.0 **** 0.06
20226 C 141.7608009481404 212.94979621519062 94.03740903785605 C 0.0 **** -0.24
20227 H 142.74791261358774 212.61738608017424 94.35888252186014 H 0.0 **** 0.06
20228 H 141.44153062254492 213.7887113529047 94.65499544557913 H 0.0 **** 0.06
20229 H 141.05054463695137 212.12972844347945 94.14074804926487 H 0.0 **** 0.06
20230 H 141.80576681650348 213.26185230488497 92.99453791196247 H 0.0 **** 0.06
20231 C 195.87685309536937 104.58791255258434 0.4773019504296201 C 0.0 **** -0.24
20232 H 196.2671836095281 104.69169937398469 1.4895175971329593 H 0.0 **** 0.06
20233 H 195.28848219116125 103.67255459559807 0.4075406409461948 H 0.0 **** 0.06
20234 H 196.70699154286467 104.54057627021793 -0.2280884275323274 H 0.0 **** 0.06
20235 H 195.24686298463567 105.44486726765017 0.24110035109401906 H 0.0 **** 0.06
20236 C 49.695817674814094 160.95685339081737 175.0974212617556 C 0.0 **** -0.24
20237 H 49.766601638631414 161.74216415843742 174.344568837773 H 0.0 **** 0.06
20238 H 49.484818674973326 161.4026665693122 176.06919240778018 H 0.0 **** 0.06
20239 H 50.63960480926818 160.4133004014239 175.14357462358936 H 0.0 **** 0.06
20240 H 48.893564256404034 160.26893968618225 174.83057613202183 H 0.0 **** 0.06
20241 C 177.96133708140752 182.00758745446188 206.62463728465363 C 0.0 **** -0.24
20242 H 178.19784854019616 181.8085414103536 207.6694918797412 H 0.0 **** 0.06
20243 H 178.34386072208048 181.19713992900034 206.0043602450075 H 0.0 **** 0.06
20244 H 178.42077613018904 182.94759016454708 206.3204863569822 H 0.0 **** 0.06
20245 H 176.879289903207 182.0769750339956 206.5053165626024 H 0.0 **** 0.06
20246 C 99.86472107169516 213.6961574811847 29.576242136250443 C 0.0 **** -0.24
20247 H 99.34162821917005 212.82354070023527 29.96564030576731 H 0.0 **** 0.06
20248 H 99.61524899311604 214.5682016624568 30.180722710328766 H 0.0 **** 0.06
20249 H 99.56349727699245 213.87030820801576 28.543782515513016 H 0.0 **** 0.06
20250 H 100.94009183982195 213.5227493080513 29.61603475821967 H 0.0 **** 0.06
20251 C 57.32280359576879 97.5367417941368 106.35812470336371 C 0.0 **** -0.24
20252 H 57.996824288855294 98.3898385613006 106.43439490916377 H 0.0 **** 0.06
20253 H 56.36524865233258 97.78823461946924 106.81425848607275 H 0.0 **** 0.06
20254 H 57.75881729232026 96.682541265029 106.87570237051777 H 0.0 **** 0.06
20255 H 57.16968811932412 97.28710420438695 105.30796763433354 H 0.0 **** 0.06
20256 C 200.25915498755484 67.87647654981505 196.2706875284785 C 0.0 **** -0.24
20257 H 199.8646717552023 67.8215242760165 197.28552612203606 H 0.0 **** 0.06
20258 H 200.0938949885072 68.87768820885964 195.8715027344212 H 0.0 **** 0.06
20259 H 199.75015791986658 67.14588022454987 195.6430434343105 H 0.0 **** 0.06
20260 H 201.32833142683336 67.66256604129055 196.2843326484603 H 0.0 **** 0.06
20261 C 135.15365682441922 123.78594746563193 101.09677378415138 C 0.0 **** -0.24
20262 H 135.51337426464272 123.58594369507462 100.08770491464175 H 0.0 **** 0.06
20263 H 135.077305135566 122.84755412935895 101.64795210231527 H 0.0 **** 0.06
20264 H 134.17271598269963 124.25786561057934 101.04570072878614 H 0.0 **** 0.06
20265 H 135.85103141700455 124.45024354007391 101.60617885185955 H 0.0 **** 0.06
20266 C 67.1838026746764 21.721425788010436 106.52661216926884 C 0.0 **** -0.24
20267 H 66.4446501782836 21.15435780309872 105.96031840038455 H 0.0 **** 0.06
20268 H 68.09506343777545 21.132384449247752 106.62569417542556 H 0.0 **** 0.06
20269 H 66.78629886643597 21.94698754564746 107.51691403118593 H 0.0 **** 0.06
20270 H 67.40679228261128 22.65219652740558 106.0039242875099 H 0.0 **** 0.06
20271 C 39.22835926320309 129.30232456706477 157.17519120330587 C 0.0 **** -0.24
20272 H 40.23447232821292 129.41670610185543 157.579768164195 H 0.0 **** 0.06
20273 H 39.031079889688044 130.10237188514566 156.46208092822565 H 0.0 **** 0.06
20274 H 38.50362623866687 129.3524134630979 157.98829838913787 H 0.0 **** 0.06
20275 H 39.14606873189706 128.33864796014558 156.67326611922095 H 0.0 **** 0.06
20276 C 193.94867262190667 170.75786869806913 5.768745863765162 C 0.0 **** -0.24
20277 H 193.44402183305897 171.35572392123208 6.527885412919545 H 0.0 **** 0.06
20278 H 194.61820913901747 170.04724020891382 6.252775955881475 H 0.0 **** 0.06
20279 H 194.5250465172665 171.41322200761766 5.115870449663788 H 0.0 **** 0.06
20280 H 193.20746838122426 170.21805271533947 5.1799869118043205 H 0.0 **** 0.06
20281 C 72.5086364945606 103.47750924681326 9.5750453144029 C 0.0 **** -0.24
20282 H 72.70270357416148 102.41131605645454 9.453253665343624 H 0.0 **** 0.06
20283 H 71.9479491382089 103.64212785243275 10.495153753233339 H 0.0 **** 0.06
20284 H 71.92884966789718 103.8396217947351 8.726524330130403 H 0.0 **** 0.06
20285 H 73.4550518714763 104.01558849603644 9.624953090423261 H 0.0 **** 0.06
20286 C 139.38301534069757 10.374888593586746 18.657803982977455 C 0.0 **** -0.24
20287 H 139.57669343955013 11.198769700222712 19.344479195816263 H 0.0 **** 0.06
20288 H 139.13401967355117 9.478432933334517 19.225988415843972 H 0.0 **** 0.06
20289 H 140.2721526199611 10.187948782505998 18.054210103188638 H 0.0 **** 0.06
20290 H 138.54969979211683 10.635206051941807 18.005088764851223 H 0.0 **** 0.06
20291 C 54.98599752374548 203.66949735771175 165.3310883924537 C 0.0 **** -0.24
20292 H 54.97871439756557 204.25856314923624 164.413637795825 H 0.0 **** 0.06
20293 H 54.26911138675359 204.08922909493458 166.03772315990466 H 0.0 **** 0.06
20294 H 55.984379311554164 203.6909355002515 165.7681940451359 H 0.0 **** 0.06
20295 H 54.71064979143671 202.6393411367192 165.10287371156852 H 0.0 **** 0.06
20296 C 204.25765407361928 59.65519040746979 189.4419781764319 C 0.0 **** -0.24
20297 H 204.24485510510655 60.74395381121006 189.38891615109856 H 0.0 **** 0.06
20298 H 203.2750332609855 59.29481546542304 189.74624840919918 H 0.0 **** 0.06
20299 H 205.00437448120317 59.335296590943116 190.1673516537522 H 0.0 **** 0.06
20300 H 204.5057096659121 59.247902623363785 188.46191378162072 H 0.0 **** 0.06
20301 C 147.00245528529808 197.78905817942567 47.83883361154827 C 0.0 **** -0.24
20302 H 148.02831767903035 198.15731548771447 47.86581603919308 H 0.0 **** 0.06
20303 H 146.44322632435444 198.32948584234504 47.07529314647047 H 0.0 **** 0.06
20304 H 146.53544269509155 197.944609028053 48.81147450856449 H 0.0 **** 0.06
20305 H 147.00523474650714 196.72517111799374 47.60309282064196 H 0.0 **** 0.06
20306 C 141.8861022919903 54.72609623908147 50.14085146725415 C 0.0 **** -0.24
20307 H 141.7728710579069 55.55818757518881 50.83491256873617 H 0.0 **** 0.06
20308 H 141.36846293576383 53.85114232403217 50.535163900370776 H 0.0 **** 0.06
20309 H 142.94390915177212 54.49846071351243 50.01658232552222 H 0.0 **** 0.06
20310 H 141.457178034302 54.997405729255206 49.17612286216274 H 0.0 **** 0.06
20311 C 198.31834535752853 194.37304159410627 195.61190407312046 C 0.0 **** -0.24
20312 H 198.03566698979614 194.84029808532 196.55497429334227 H 0.0 **** 0.06
20313 H 199.3756640446667 194.55622591454025 195.41754138434158 H 0.0 **** 0.06
20314 H 197.7213469173185 194.795798471872 194.80336178333164 H 0.0 **** 0.06
20315 H 198.14014248911167 193.29879633986334 195.67097206362712 H 0.0 **** 0.06
20316 C 48.832435782339246 0.2301432229439513 183.74891945193713 C 0.0 **** -0.24
20317 H 48.35755268132783 -0.4316895247994097 184.47402400410067 H 0.0 **** 0.06
20318 H 49.19002289876835 1.127183250161579 184.25488762092817 H 0.0 **** 0.06
20319 H 48.107852160114135 0.5082211800894569 182.98365586421778 H 0.0 **** 0.06
20320 H 49.672779868607904 -0.2849922303979895 183.2835782676969 H 0.0 **** 0.06
20321 C 61.00087994354527 140.97518384103614 150.3214961521324 C 0.0 **** -0.24
20322 H 60.9703934368311 141.82089229524962 151.00856668854124 H 0.0 **** 0.06
20323 H 59.99736638208111 140.77553612557654 149.945986558377 H 0.0 **** 0.06
20324 H 61.375180185729675 140.0949864117024 150.84500543041173 H 0.0 **** 0.06
20325 H 61.66214564112323 141.2086743338662 149.4867872143243 H 0.0 **** 0.06
20326 C 204.93476834196892 139.5838120003845 107.69036372729504 C 0.0 **** -0.24
20327 H 203.96705557235742 139.89320831976198 108.08651403607679 H 0.0 **** 0.06
20328 H 205.2456749399293 138.65743221475094 108.17527583132313 H 0.0 **** 0.06
20329 H 205.67261019447903 140.36150250520524 107.88618509193064 H 0.0 **** 0.06
20330 H 204.85245381268146 139.42203991417267 106.61576694696292 H 0.0 **** 0.06
20331 C 58.5064020945714 41.94051752382825 170.26954842140015 C 0.0 **** -0.24
20332 H 57.53816851130438 42.438964817227145 170.30585470254044 H 0.0 **** 0.06
20333 H 58.734016917670374 41.51708860818806 171.2474674215751 H 0.0 **** 0.06
20334 H 59.276435616428785 42.66252027735695 169.99806079165052 H 0.0 **** 0.06
20335 H 58.477246302601884 41.14421868973757 169.52616949111774 H 0.0 **** 0.06
20336 C 16.40330645889628 213.09276791680165 106.30986671862614 C 0.0 **** -0.24
20337 H 16.74477780352882 212.28740691727484 106.95968523731442 H 0.0 **** 0.06
20338 H 16.22282895680013 213.9882650809098 106.90427216269016 H 0.0 **** 0.06
20339 H 15.480586442639876 212.79228659961933 105.81497596186524 H 0.0 **** 0.06
20340 H 17.166543208233904 213.30151874648413 105.55944889407182 H 0.0 **** 0.06
20341 C 167.82105846964438 152.1886060762535 125.26120544112776 C 0.0 **** -0.24
20342 H 168.83340061349452 151.8574036443515 125.03295460412276 H 0.0 **** 0.06
20343 H 167.40758260692232 152.71469592733598 124.40047010166724 H 0.0 **** 0.06
20344 H 167.84333345552716 152.8585097185312 126.12141651455126 H 0.0 **** 0.06
20345 H 167.1994672296932 151.3231417353947 125.49151164509657 H 0.0 **** 0.06
20346 C 130.5476593589737 98.9424279026605 6.244197629048074 C 0.0 **** -0.24
20347 H 130.8736517739518 98.95091244758446 5.204019712485092 H 0.0 **** 0.06
20348 H 129.5025407631606 98.63556728578676 6.294683608470734 H 0.0 **** 0.06
20349 H 130.6539914879773 99.94309704649514 6.66559994935028 H 0.0 **** 0.06
20350 H 131.16067439309126 98.24239585396698 6.811571253172019 H 0.0 **** 0.06
20351 C 102.59455075760629 79.26389312398464 61.7265395829798 C 0.0 **** -0.24
20352 H 102.47746138557905 79.87520150907557 62.62135256559847 H 0.0 **** 0.06
20353 H 102.6215906433575 78.21060074914794 62.007952403369615 H 0.0 **** 0.06
20354 H 103.52368724900761 79.5300463994518 61.224059806464 H 0.0 **** 0.06
20355 H 101.75476996942426 79.43925517909429 61.05460989661205 H 0.0 **** 0.06
20356 C 105.73179449137461 94.115441849202 184.56688731446107 C 0.0 **** -0.24
20357 H 104.74838821957911 94.38090336203953 184.17807831624467 H 0.0 **** 0.06
20358 H 106.44345371868468 94.90467130083579 184.32324995348063 H 0.0 **** 0.06
20359 H 106.05981364590673 93.17909864364498 184.11491609747597 H 0.0 **** 0.06
20360 H 105.6751076668096 93.99714724872979 185.649108240741 H 0.0 **** 0.06
20361 C 165.43825887326446 175.43673730961825 64.87262032542509 C 0.0 **** -0.24
20362 H 165.68712531517025 175.37526732842707 63.812580659134426 H 0.0 **** 0.06
20363 H 164.77488847006944 176.28548092931095 65.04044499923413 H 0.0 **** 0.06
20364 H 166.35167389145172 175.56835776291393 65.45240838363753 H 0.0 **** 0.06
20365 H 164.94013001298129 174.5181730562664 65.18184108416983 H 0.0 **** 0.06
20366 C 172.26325724577413 101.92909553013702 180.97568022758742 C 0.0 **** -0.24
20367 H 172.33181167363404 100.94438723017292 180.51363154335587 H 0.0 **** 0.06
20368 H 173.00115102486296 102.00736086503905 181.77471305615472 H 0.0 **** 0.06
20369 H 171.26416051701 102.06749259014647 181.3890034889679 H 0.0 **** 0.06
20370 H 172.45619486453808 102.6960293178792 180.22619723192673 H 0.0 **** 0.06
20371 C 61.88555013922807 24.588053801657907 145.7582829723578 C 0.0 **** -0.24
20372 H 62.00056417241929 23.825206657385422 146.5278114840782 H 0.0 **** 0.06
20373 H 61.698387012411956 25.553485866581156 146.22823406123706 H 0.0 **** 0.06
20374 H 61.04499245428177 24.328410872378072 145.11415528554443 H 0.0 **** 0.06
20375 H 62.79657580497151 24.643855063184077 145.16216000012764 H 0.0 **** 0.06
20376 C 53.005832889823466 183.43901947502928 164.10145925031344 C 0.0 **** -0.24
20377 H 53.27033643879821 182.60054083121167 163.45787199280335 H 0.0 **** 0.06
20378 H 53.157951514164665 183.1585783204953 165.14412834160376 H 0.0 **** 0.06
20379 H 51.959134228512255 183.70121832192154 163.94537330058762 H 0.0 **** 0.06
20380 H 53.63469404793409 184.29575396438076 163.85969740063555 H 0.0 **** 0.06
20381 C 202.90337757014618 130.5362690571319 166.52124401843332 C 0.0 **** -0.24
20382 H 203.02624033439685 131.37971808500163 167.20085318534007 H 0.0 **** 0.06
20383 H 203.10151446889367 129.60692837891713 167.0566651940979 H 0.0 **** 0.06
20384 H 203.60214311053812 130.63366902427333 165.69076097118355 H 0.0 **** 0.06
20385 H 201.88227069180698 130.52479917824343 166.1384851625441 H 0.0 **** 0.06
20386 C 59.465048722404816 203.98799385229015 124.11483763322813 C 0.0 **** -0.24
20387 H 59.39927296844296 204.8688324084879 123.47547612379553 H 0.0 **** 0.06
20388 H 58.512002843806215 203.45911942146222 124.10451646516965 H 0.0 **** 0.06
20389 H 59.69978521139487 204.29645829176172 125.13382468671607 H 0.0 **** 0.06
20390 H 60.250704593286386 203.3289867135494 123.74430343397226 H 0.0 **** 0.06
20391 C 204.73135188079567 156.17894902869335 47.811767304002785 C 0.0 **** -0.24
20392 H 205.09694558257573 155.42517067916754 48.508957076212184 H 0.0 **** 0.06
20393 H 205.0294500419324 155.9102549515498 46.79819780927856 H 0.0 **** 0.06
20394 H 205.15605470667444 157.14882817812384 48.070379134217376 H 0.0 **** 0.06
20395 H 203.64459757795217 156.23072575223063 47.87033672096021 H 0.0 **** 0.06
20396 C 99.64921127900413 147.52397462304157 56.777305015934715 C 0.0 **** -0.24
20397 H 99.30452470095281 147.55361035047468 55.743406069111245 H 0.0 **** 0.06
20398 H 100.56977605193293 146.94276120388707 56.83554251253997 H 0.0 **** 0.06
20399 H 98.8851948895761 147.05970836148077 57.40133701953168 H 0.0 **** 0.06
20400 H 99.83652423130252 148.53893880582956 57.12705162856254 H 0.0 **** 0.06
20401 C 216.84183811256594 74.06873698559946 211.00807182197963 C 0.0 **** -0.24
20402 H 217.2742891762843 73.51241176614229 211.84039716957795 H 0.0 **** 0.06
20403 H 216.65520087215282 73.38960585194917 210.17550674983767 H 0.0 **** 0.06
20404 H 217.5356793978335 74.84749764244043 210.69267963084894 H 0.0 **** 0.06
20405 H 215.90344296852635 74.5237567748801 211.3244808540507 H 0.0 **** 0.06
20406 C 156.05913913521482 26.01233813081174 197.87598689738752 C 0.0 **** -0.24
20407 H 156.7784210996777 25.203805570698734 197.74980578535542 H 0.0 **** 0.06
20408 H 156.32194915974526 26.83884043037183 197.21501791730154 H 0.0 **** 0.06
20409 H 156.07406478125574 26.355739446653033 198.91048672919376 H 0.0 **** 0.06
20410 H 155.05997057507687 25.651286416365792 197.6275094856203 H 0.0 **** 0.06
20411 C 128.7402182218459 177.86714344595757 72.56740246890399 C 0.0 **** -0.24
20412 H 128.5936135449868 178.93653982783565 72.41904625229074 H 0.0 **** 0.06
20413 H 128.3254698636477 177.57375923414003 73.53209913155337 H 0.0 **** 0.06
20414 H 129.80601204212627 177.64034911459115 72.54547084771406 H 0.0 **** 0.06
20415 H 128.23529591180545 177.3170494552678 71.77297109456799 H 0.0 **** 0.06
20416 C 198.09160327206223 70.58516834418587 176.47025008342956 C 0.0 **** -0.24
20417 H 198.4581509646731 71.602215578161 176.33629178552468 H 0.0 **** 0.06
20418 H 197.29874016923688 70.38739956112725 175.74728896101882 H 0.0 **** 0.06
20419 H 197.69859619570332 70.47027365009747 177.47983701076203 H 0.0 **** 0.06
20420 H 198.90811730288564 69.88090675307522 176.31555826042322 H 0.0 **** 0.06
20421 C 153.16871108062486 172.35209783742116 214.1428328345459 C 0.0 **** -0.24
20422 H 153.41769240135568 171.7499089595216 215.01760767621107 H 0.0 **** 0.06
20423 H 152.0972120393642 172.54897775795786 214.1302940971461 H 0.0 **** 0.06
20424 H 153.4508042618781 171.81217225425132 213.23896617521035 H 0.0 **** 0.06
20425 H 153.7119407672455 173.2965455916394 214.18681122967814 H 0.0 **** 0.06
20426 C 30.277073721664635 68.61458807107078 91.07252149396317 C 0.0 **** -0.24
20427 H 30.018083804734943 67.62337206898496 90.70154281307344 H 0.0 **** 0.06
20428 H 29.953698162137755 69.36765853020063 90.35307914896555 H 0.0 **** 0.06
20429 H 31.35748853555708 68.68119929875093 91.20737304828538 H 0.0 **** 0.06
20430 H 29.7810942700458 68.78687397597963 92.02770267379168 H 0.0 **** 0.06
20431 C 128.78713094379077 77.45115001880963 130.46515560459272 C 0.0 **** -0.24
20432 H 129.74148765207502 77.05468196961745 130.81481477049374 H 0.0 **** 0.06
20433 H 128.80221860258638 78.53937904970293 130.5269138316761 H 0.0 **** 0.06
20434 H 127.98275131587694 77.06191026107861 131.08916118046346 H 0.0 **** 0.06
20435 H 128.62512566344446 77.14777284979162 129.43111367635635 H 0.0 **** 0.06
20436 C 3.7702864400476983 20.579548792459548 183.586260815312 C 0.0 **** -0.24
20437 H 4.140084725130521 20.41632400478582 184.59954758039203 H 0.0 **** 0.06
20438 H 3.130679803473157 19.74572805508234 183.29520157492635 H 0.0 **** 0.06
20439 H 4.613975058596964 20.64759391642633 182.89891772347738 H 0.0 **** 0.06
20440 H 3.1979654225307286 21.5067185734936 183.55317018390218 H 0.0 **** 0.06
20441 C 104.88723242950756 85.22946492392164 44.52103195167952 C 0.0 **** -0.24
20442 H 104.43359288156167 86.15407261392541 44.16382624082803 H 0.0 **** 0.06
20443 H 104.282064570213 84.3810715485297 44.20131069598986 H 0.0 **** 0.06
20444 H 104.94073777952578 85.24938671532753 45.609453484604 H 0.0 **** 0.06
20445 H 105.8921494718838 85.13574741946037 44.10958462693536 H 0.0 **** 0.06
20446 C 166.3431843535244 203.5771083604409 113.31883427948868 C 0.0 **** -0.24
20447 H 166.2448927477019 204.64641726964618 113.50796747678432 H 0.0 **** 0.06
20448 H 166.83052139876554 203.10133037438158 114.17067879152314 H 0.0 **** 0.06
20449 H 166.94383686708733 203.42072438341995 112.42265195926466 H 0.0 **** 0.06
20450 H 165.35500840904726 203.14094949171005 113.17487987847464 H 0.0 **** 0.06
20451 C 45.67948609724664 44.384569050970725 114.11049876352651 C 0.0 **** -0.24
20452 H 46.72209882523117 44.16438242974607 114.34093681767017 H 0.0 **** 0.06
20453 H 45.29609204218082 45.11154961589102 114.82518636127305 H 0.0 **** 0.06
20454 H 45.092922239296456 43.46767115494012 114.17293460950252 H 0.0 **** 0.06
20455 H 45.608707550097336 44.79238038588775 113.10246432064683 H 0.0 **** 0.06
20456 C 26.940566299434806 132.6760026803558 90.71521253676961 C 0.0 **** -0.24
20457 H 27.145081373908113 133.74388977028394 90.78932648521005 H 0.0 **** 0.06
20458 H 27.882026528387428 132.12586694909055 90.69044407497766 H 0.0 **** 0.06
20459 H 26.37892299966495 132.47536650002013 89.8034082560262 H 0.0 **** 0.06
20460 H 26.356722104549164 132.35772906583645 91.57922700949037 H 0.0 **** 0.06
20461 C 14.948451014178431 203.5473757717502 118.91995198311339 C 0.0 **** -0.24
20462 H 14.381942102653284 204.47494320433984 118.83455610289003 H 0.0 **** 0.06
20463 H 14.568973159490497 202.9665700643527 119.76214523143817 H 0.0 **** 0.06
20464 H 16.00131836283856 203.77858725396845 119.08314739379419 H 0.0 **** 0.06
20465 H 14.841572861941643 202.96935759364476 118.00219483768096 H 0.0 **** 0.06
20466 C 213.1433619490423 169.71281835625365 99.23419018100758 C 0.0 **** -0.24
20467 H 212.29616809634751 170.27856057212796 99.62245615352644 H 0.0 **** 0.06
20468 H 213.0430367506562 168.6661582180189 99.52147322283004 H 0.0 **** 0.06
20469 H 214.06820677741035 170.11608718124305 99.64630961742235 H 0.0 **** 0.06
20470 H 213.1651337645373 169.7917207907414 98.14730585915156 H 0.0 **** 0.06
20471 C 107.07874231568292 150.42648803843895 154.29966406464501 C 0.0 **** -0.24
20472 H 107.30351116229707 150.29373664866677 153.24151796606986 H 0.0 **** 0.06
20473 H 107.94005729002885 150.86942650039077 154.8002818632449 H 0.0 **** 0.06
20474 H 106.85659303974563 149.45692790401563 154.74767301054806 H 0.0 **** 0.06
20475 H 106.21646406704491 151.0836618312323 154.4085353201441 H 0.0 **** 0.06
20476 C 112.52311099367238 193.92075396508378 212.966620709645 C 0.0 **** -0.24
20477 H 113.24560512035076 193.85155413327803 212.15375002656694 H 0.0 **** 0.06
20478 H 112.72469538136313 193.1383957563082 213.69881502591463 H 0.0 **** 0.06
20479 H 111.51592715064957 193.79537357485583 212.56824072349497 H 0.0 **** 0.06
20480 H 112.60559684932169 194.89724201519542 213.44448817895824 H 0.0 **** 0.06
20481 C 72.16942675904424 58.302197168265195 49.601246070878005 C 0.0 **** -0.24
20482 H 72.85292184645375 59.14228010592163 49.47878278409047 H 0.0 **** 0.06
20483 H 72.70858503627294 57.45396295711504 50.02466812406362 H 0.0 **** 0.06
20484 H 71.7585692346117 58.0236800939436 48.63100565506244 H 0.0 **** 0.06
20485 H 71.35896121742722 58.58900023545664 50.27098836142682 H 0.0 **** 0.06
20486 C 163.62808423801903 129.30096182159065 72.61449225127859 C 0.0 **** -0.24
20487 H 163.16188449779807 130.04952094061514 73.25543467519401 H 0.0 **** 0.06
20488 H 163.16300712298187 128.33132662287943 72.7925062856475 H 0.0 **** 0.06
20489 H 164.69292977573076 129.2410668708511 72.84068403178048 H 0.0 **** 0.06
20490 H 163.49424727042202 129.58339918079184 71.5702260294155 H 0.0 **** 0.06
20491 C 2.308648595861513 149.2834975141502 147.69339504117204 C 0.0 **** -0.24
20492 H 2.629147956176155 149.76350802337265 148.61764835893183 H 0.0 **** 0.06
20493 H 3.121101924107961 149.3146720155915 146.96735862481597 H 0.0 **** 0.06
20494 H 1.4417267271503817 149.808762300564 147.29358320934637 H 0.0 **** 0.06
20495 H 2.042933065012761 148.24569805542768 147.89745556318212 H 0.0 **** 0.06
20496 C 62.5516522992703 97.85779148340879 188.20452281078775 C 0.0 **** -0.24
20497 H 61.70491324996375 98.5448240404466 188.19793492555542 H 0.0 **** 0.06
20498 H 63.172489039583 98.03953943337524 187.32696394135627 H 0.0 **** 0.06
20499 H 62.18682313024999 96.83126009320995 188.18559917055688 H 0.0 **** 0.06
20500 H 63.141235793163005 98.01724855702025 189.10671506476976 H 0.0 **** 0.06
20501 C 93.37578139762043 197.74671888540774 150.56616411537925 C 0.0 **** -0.24
20502 H 93.92959648786614 197.92998293098447 151.48670268874446 H 0.0 **** 0.06
20503 H 93.87055487926507 198.25555379436628 149.73829130471557 H 0.0 **** 0.06
20504 H 92.35950438195793 198.12562684348217 150.6716530413434 H 0.0 **** 0.06
20505 H 93.34576919481817 196.67504946059572 150.36748583040082 H 0.0 **** 0.06
20506 C 185.38132308944463 100.65089041619753 17.884151892007992 C 0.0 **** -0.24
20507 H 185.17181239040963 101.46757983475159 17.192346413227938 H 0.0 **** 0.06
20508 H 185.91636381102163 99.86004182063358 17.359131845571113 H 0.0 **** 0.06
20509 H 184.44298551148287 100.25783305644894 18.275822216450223 H 0.0 **** 0.06
20510 H 185.9922922746379 101.01983199753788 18.707680818316263 H 0.0 **** 0.06
20511 C 193.97928456944254 138.9366769522586 11.461814561078498 C 0.0 **** -0.24
20512 H 194.30178318179782 139.67195172667311 10.725486668121377 H 0.0 **** 0.06
20513 H 192.92183288828895 138.71394220717696 11.31410424335239 H 0.0 **** 0.06
20514 H 194.13070169526335 139.3364098057766 12.464297293804592 H 0.0 **** 0.06
20515 H 194.56365908790664 138.0234170798944 11.342801992601522 H 0.0 **** 0.06
20516 C 60.725192042017284 181.42257450331493 47.600960604510135 C 0.0 **** -0.24
20517 H 60.60267953922116 180.33970191218776 47.613075432419805 H 0.0 **** 0.06
20518 H 61.31313230715634 181.73146979642345 48.465155071125196 H 0.0 **** 0.06
20519 H 59.74471186810324 181.8987661153413 47.639266461535215 H 0.0 **** 0.06
20520 H 61.23831497778393 181.72006385114014 46.68591028103373 H 0.0 **** 0.06
20521 C 4.264392125702777 70.57142796248176 145.47522547916645 C 0.0 **** -0.24
20522 H 5.342337192552456 70.70425041648876 145.56560667021853 H 0.0 **** 0.06
20523 H 4.0560871762150725 69.73464496654425 144.8083406268252 H 0.0 **** 0.06
20524 H 3.8202435897124687 71.48038273471575 145.0676785967168 H 0.0 **** 0.06
20525 H 3.839350700713844 70.36913117714236 146.45768815660546 H 0.0 **** 0.06
20526 C 49.47554121022267 79.50082051078986 31.075316572007324 C 0.0 **** -0.24
20527 H 48.46929309907543 79.4206378013218 31.486530151398227 H 0.0 **** 0.06
20528 H 50.16465006622926 78.91643392484288 31.68651741512747 H 0.0 **** 0.06
20529 H 49.785244915728086 80.54586736977184 31.076218199817106 H 0.0 **** 0.06
20530 H 49.482507772146434 79.11972970960811 30.0543251919529 H 0.0 **** 0.06
20531 C 216.1389237178679 152.8651723908634 48.8274961526033 C 0.0 **** -0.24
20532 H 215.61795947726804 153.79673586886446 48.60679073779545 H 0.0 **** 0.06
20533 H 216.11987468099844 152.22134606575003 47.94765585512975 H 0.0 **** 0.06
20534 H 215.64456765978125 152.36062163936316 49.65803981481163 H 0.0 **** 0.06
20535 H 217.17195726468327 153.08191494409152 49.097039231117435 H 0.0 **** 0.06
20536 C 53.01012838737893 127.94931432581298 56.05626131843232 C 0.0 **** -0.24
20537 H 52.385473408591395 127.35538782066347 55.38878352342181 H 0.0 **** 0.06
20538 H 53.48713665852955 127.29335316335998 56.78521414116538 H 0.0 **** 0.06
20539 H 52.39276163524403 128.68214758532378 56.57461237992946 H 0.0 **** 0.06
20540 H 53.77543731260744 128.46347276875565 55.47519981207377 H 0.0 **** 0.06
20541 C 6.760837411427929 174.24338863485275 192.03734149819476 C 0.0 **** -0.24
20542 H 6.551406307495938 173.39328263566154 191.38682434483036 H 0.0 **** 0.06
20543 H 7.811239754243957 174.51919640355428 191.94618162108 H 0.0 **** 0.06
20544 H 6.542549393595323 173.97220705210734 193.07012609458735 H 0.0 **** 0.06
20545 H 6.135624387990731 175.087106923752 191.74284313770931 H 0.0 **** 0.06
20546 C 140.35758227691628 27.444419978560006 37.22066497819691 C 0.0 **** -0.24
20547 H 139.28013915404688 27.279181623917992 37.234183274460335 H 0.0 **** 0.06
20548 H 140.63324600691192 28.110438135475874 38.0393349287295 H 0.0 **** 0.06
20549 H 140.64316899314235 27.89833012897418 36.27121884731156 H 0.0 **** 0.06
20550 H 140.87271137390718 26.49163091211591 37.33741737782019 H 0.0 **** 0.06
20551 C 147.83525861326416 157.97996078004445 102.67086989958632 C 0.0 **** -0.24
20552 H 148.49398775045495 157.5134270619152 101.93904523882459 H 0.0 **** 0.06
20553 H 146.97876098520902 158.41973462578375 102.15954718336592 H 0.0 **** 0.06
20554 H 148.37916783946082 158.76008790436615 103.2042380407644 H 0.0 **** 0.06
20555 H 147.4899358513813 157.22888756534303 103.38038757408803 H 0.0 **** 0.06
20556 C 44.555937305934265 81.4291570685882 120.53349673654367 C 0.0 **** -0.24
20557 H 44.50572782045708 82.1574105409566 121.34212767920377 H 0.0 **** 0.06
20558 H 44.05614034270667 81.83092422861337 119.6519059660323 H 0.0 **** 0.06
20559 H 44.06241317889726 80.50849356323907 120.84288769052068 H 0.0 **** 0.06
20560 H 45.598787300995525 81.22056313302546 120.29608868534552 H 0.0 **** 0.06
20561 C 37.293897796383746 93.74766079511691 20.004022726097247 C 0.0 **** -0.24
20562 H 36.60631380658417 94.56773482072332 20.2138607752683 H 0.0 **** 0.06
20563 H 37.965815433212654 94.03628695642074 19.19510506505918 H 0.0 **** 0.06
20564 H 36.72643195767073 92.86500174969972 19.708850453893604 H 0.0 **** 0.06
20565 H 37.875326179520016 93.52389791854687 20.89732240330295 H 0.0 **** 0.06
20566 C 104.58253927220674 135.84352751101682 13.281910800434389 C 0.0 **** -0.24
20567 H 103.76272002230415 136.51187739922005 13.0195790395004 H 0.0 **** 0.06
20568 H 104.70857983229003 135.09792128890564 12.496018124473267 H 0.0 **** 0.06
20569 H 104.35496413534877 135.34370560668862 14.223692497825084 H 0.0 **** 0.06
20570 H 105.50134647423043 136.41938770024694 13.388176918640625 H 0.0 **** 0.06
20571 C 117.99592367238019 147.544419922357 198.64874090039888 C 0.0 **** -0.24
20572 H 119.02889551042678 147.83750823846373 198.45757976242015 H 0.0 **** 0.06
20573 H 117.91872669683876 146.45696834448802 198.63514533262304 H 0.0 **** 0.06
20574 H 117.35083267153165 147.9647827189621 197.8769903822 H 0.0 **** 0.06
20575 H 117.68725794899642 147.9191557521973 199.6246264802101 H 0.0 **** 0.06
20576 C 185.7831529931955 188.95793780344206 79.540994514055 C 0.0 **** -0.24
20577 H 185.0837277502072 189.71535456914657 79.89657478583706 H 0.0 **** 0.06
20578 H 186.05268121498733 188.2978802466205 80.36625066669473 H 0.0 **** 0.06
20579 H 186.67975019592797 189.443714490002 79.15617169639245 H 0.0 **** 0.06
20580 H 185.31582455385694 188.37556728835008 78.74698579377542 H 0.0 **** 0.06
20581 C 34.85617067606893 210.06271406770438 38.000642849040005 C 0.0 **** -0.24
20582 H 34.47534669849591 210.80384425000958 38.70329232509202 H 0.0 **** 0.06
20583 H 35.62829807672614 210.51568918249384 37.378740155955825 H 0.0 **** 0.06
20584 H 34.0416844259378 209.7071473388272 37.36963208493232 H 0.0 **** 0.06
20585 H 35.2804973640861 209.223697993122 38.553019570449095 H 0.0 **** 0.06
20586 C 141.95551787935506 198.1031512031404 166.63963172068821 C 0.0 **** -0.24
20587 H 142.7059475861588 198.71575351688912 166.13897433920346 H 0.0 **** 0.06
20588 H 142.12659834297847 198.12608786984936 167.7158679961185 H 0.0 **** 0.06
20589 H 142.0285147667667 197.07571108032988 166.28170938060737 H 0.0 **** 0.06
20590 H 140.96244301285213 198.49419005921052 166.4204901162896 H 0.0 **** 0.06
20591 C 16.160025600054368 127.42052106555776 171.93941707997269 C 0.0 **** -0.24
20592 H 16.060766168491057 127.2958510918239 170.8608953564742 H 0.0 **** 0.06
20593 H 15.215349434295504 127.16965494485756 172.42207976913804 H 0.0 **** 0.06
20594 H 16.418449685998866 128.45634332079442 172.1619825835995 H 0.0 **** 0.06
20595 H 16.94503219932666 126.76244776409173 172.31074885894614 H 0.0 **** 0.06
20596 C 179.82555268235043 48.70145349063216 201.41889827734363 C 0.0 **** -0.24
20597 H 179.2044226625502 49.595249345171 201.47352975217214 H 0.0 **** 0.06
20598 H 180.53648912537278 48.802562673070156 200.5986437740834 H 0.0 **** 0.06
20599 H 179.19345179367625 47.83068785177511 201.24632714338242 H 0.0 **** 0.06
20600 H 180.36718662781666 48.576940763715925 202.35644101367993 H 0.0 **** 0.06
20601 C 27.269080185373014 161.7475722879782 155.8689721814336 C 0.0 **** -0.24
20602 H 26.414633960801723 161.26214572762527 155.39779086373028 H 0.0 **** 0.06
20603 H 28.19225005470105 161.3261759974908 155.47048792334783 H 0.0 **** 0.06
20604 H 27.23007398363029 161.5850838832234 156.94615748292216 H 0.0 **** 0.06
20605 H 27.238917982286694 162.8177559506654 155.6616552149332 H 0.0 **** 0.06
20606 C 86.22324540061254 24.619354561686052 161.58518722781633 C 0.0 **** -0.24
20607 H 86.10760496104729 25.478687865178543 162.24635491728327 H 0.0 **** 0.06
20608 H 87.24639503250245 24.583246552128116 161.21162174215021 H 0.0 **** 0.06
20609 H 85.53182037352133 24.709932283222727 160.74807001565654 H 0.0 **** 0.06
20610 H 86.00612077222365 23.704985996028768 162.1382515779021 H 0.0 **** 0.06
20611 C 68.65309284810701 143.31925568341046 108.72536647057932 C 0.0 **** -0.24
20612 H 69.56451820315908 143.61144377241607 108.20399608784545 H 0.0 **** 0.06
20613 H 68.7791422105542 143.48411965944956 109.79620707147346 H 0.0 **** 0.06
20614 H 68.45142905758263 142.26449806911103 108.54063906646009 H 0.0 **** 0.06
20615 H 67.81884615159703 143.918414541988 108.36128785516011 H 0.0 **** 0.06
20616 C 6.847868679582646 114.50390397328586 128.8576061225158 C 0.0 **** -0.24
20617 H 6.84019828179504 113.41458803018007 128.8525018219538 H 0.0 **** 0.06
20618 H 6.570804463434882 114.86366621134913 129.84895505376699 H 0.0 **** 0.06
20619 H 6.132632288821441 114.87603274374847 128.12333489283378 H 0.0 **** 0.06
20620 H 7.845540874070551 114.86161953332213 128.60642714593075 H 0.0 **** 0.06
20621 C 68.88539597164592 12.687343338053722 71.5204414963955 C 0.0 **** -0.24
20622 H 68.36305548414816 12.276957561298843 70.65533566906169 H 0.0 **** 0.06
20623 H 68.24441309673102 13.41321770828381 72.0212074062091 H 0.0 **** 0.06
20624 H 69.80254137562832 13.176927770831412 71.1915592329421 H 0.0 **** 0.06
20625 H 69.13168506498849 11.881119525378978 72.21174966995346 H 0.0 **** 0.06
20626 C 142.27686146175796 40.7659027218194 83.03592574681598 C 0.0 **** -0.24
20627 H 141.83725284983552 41.75454116610882 82.89428014713688 H 0.0 **** 0.06
20628 H 142.6659657523997 40.402959438025675 82.08490726575288 H 0.0 **** 0.06
20629 H 141.513659864141 40.079934839061366 83.40414379435727 H 0.0 **** 0.06
20630 H 143.08837306400017 40.83025700748368 83.76109716783454 H 0.0 **** 0.06
20631 C 83.42603224105873 210.74511085214752 78.97107999116292 C 0.0 **** -0.24
20632 H 82.42328369508984 210.32163314035722 79.02124078413664 H 0.0 **** 0.06
20633 H 83.64977519505247 211.02944663945587 77.94203071300564 H 0.0 **** 0.06
20634 H 84.15072716555567 210.0045223006364 79.30858108933171 H 0.0 **** 0.06
20635 H 83.48111170692754 211.62586047067447 79.61185882955317 H 0.0 **** 0.06
20636 C 20.85221566738555 14.678038582014182 84.76707612722858 C 0.0 **** -0.24
20637 H 19.996593938153097 14.021481814661371 84.60666784299279 H 0.0 **** 0.06
20638 H 21.7305744252305 14.07770180215698 85.00310530315603 H 0.0 **** 0.06
20639 H 20.640086151702505 15.354584591241405 85.59479812049584 H 0.0 **** 0.06
20640 H 21.039109775427093 15.257306278118278 83.8624714196654 H 0.0 **** 0.06
20641 C 98.10458658759664 63.53225599405809 143.09185612692522 C 0.0 **** -0.24
20642 H 97.23140340846639 63.28715576232484 142.4870130455546 H 0.0 **** 0.06
20643 H 98.16066849918509 62.850676664601025 143.94153465420715 H 0.0 **** 0.06
20644 H 98.02211841365467 64.5576162771611 143.45218018248323 H 0.0 **** 0.06
20645 H 99.0055956865365 63.432274433371504 142.48558518961113 H 0.0 **** 0.06
20646 C 192.9121189616312 106.10799536025412 53.21221563280706 C 0.0 **** -0.24
20647 H 191.84067723316886 106.2845309661593 53.12283485901075 H 0.0 **** 0.06
20648 H 193.1113257117996 105.53129292355875 54.11529320535462 H 0.0 **** 0.06
20649 H 193.4344190233194 107.06267861665806 53.2671851473643 H 0.0 **** 0.06
20650 H 193.2621884551978 105.55258128566369 52.34150574417585 H 0.0 **** 0.06
20651 C 130.25956296294277 137.7563632891525 40.140074667022475 C 0.0 **** -0.24
20652 H 129.58086721015258 138.07232674834006 40.93211841520633 H 0.0 **** 0.06
20653 H 129.99063699834102 136.75272064380215 39.81035902203408 H 0.0 **** 0.06
20654 H 131.28167840902415 137.75232498261772 40.51911140502057 H 0.0 **** 0.06
20655 H 130.18560961526612 138.44783288212392 39.301086090919256 H 0.0 **** 0.06
20656 C 129.2479172154259 36.29698447608435 161.86426419630158 C 0.0 **** -0.24
20657 H 129.89838588957264 37.098011786728094 161.51302796734194 H 0.0 **** 0.06
20658 H 128.2103651781337 36.550704461855844 161.64499931080277 H 0.0 **** 0.06
20659 H 129.37279724019368 36.174152654836746 162.94012871419397 H 0.0 **** 0.06
20660 H 129.51044649970265 35.36802528682999 161.35850800105337 H 0.0 **** 0.06
20661 C 189.71292286392412 63.20129915480699 5.634029133075288 C 0.0 **** -0.24
20662 H 189.13732059206006 63.22167336062013 6.559171308562469 H 0.0 **** 0.06
20663 H 189.06503707656466 63.462803830750744 4.7966657303270495 H 0.0 **** 0.06
20664 H 190.1198305838457 62.20135570425823 5.481181653383516 H 0.0 **** 0.06
20665 H 190.53122897677804 63.91948888126517 5.699019788427734 H 0.0 **** 0.06
20666 C 72.07916357153846 136.67093620589304 57.89956972034868 C 0.0 **** -0.24
20667 H 71.22898116323478 137.17536293030423 57.441376885805326 H 0.0 **** 0.06
20668 H 71.72211902698689 135.97145395560926 58.656205650584496 H 0.0 **** 0.06
20669 H 72.73180548858562 137.40900156380502 58.36642323188637 H 0.0 **** 0.06
20670 H 72.63390898133548 136.12709741222739 57.13480894868539 H 0.0 **** 0.06
20671 C 22.392381899277893 131.28222313394093 149.19442995251035 C 0.0 **** -0.24
20672 H 23.021715017259623 131.81510702800006 149.90799546270944 H 0.0 **** 0.06
20673 H 21.45462282814151 131.0024225854665 149.67573311590513 H 0.0 **** 0.06
20674 H 22.9084986575169 130.38375703927056 148.85562719221565 H 0.0 **** 0.06
20675 H 22.18572182810078 131.92692522597133 148.34022800764683 H 0.0 **** 0.06
20676 C 206.89492545355796 157.90669870326548 17.450773719102244 C 0.0 **** -0.24
20677 H 206.48131042157854 157.20405174218973 18.174346793667638 H 0.0 **** 0.06
20678 H 206.67106717229632 157.56122759098287 16.441233563308245 H 0.0 **** 0.06
20679 H 207.97438862797037 157.97175017342255 17.58288987276235 H 0.0 **** 0.06
20680 H 206.4507302706911 158.88987243155754 17.606392474723933 H 0.0 **** 0.06
20681 C 199.61873499794862 200.10132060080574 114.12721355769274 C 0.0 **** -0.24
20682 H 200.07858507993097 199.9569207552349 115.10515871633969 H 0.0 **** 0.06
20683 H 199.69713837525853 199.17960268891153 113.54995784997446 H 0.0 **** 0.06
20684 H 200.13127521980766 200.90551326139175 113.60067885049388 H 0.0 **** 0.06
20685 H 198.56808362362472 200.36169020043926 114.25630849047324 H 0.0 **** 0.06
20686 C 92.38131400234043 143.76123968391954 199.7348457394958 C 0.0 **** -0.24
20687 H 93.16955801465924 144.49475578619564 199.89826730216993 H 0.0 **** 0.06
20688 H 92.64299946296423 142.82881260826088 200.23604991139797 H 0.0 **** 0.06
20689 H 92.26852908321062 143.58051576157254 198.66577157652264 H 0.0 **** 0.06
20690 H 91.4429657933948 144.13984132953902 200.13998962413012 H 0.0 **** 0.06
20691 C 76.48453423079748 79.15911431429844 168.44941341948623 C 0.0 **** -0.24
20692 H 76.32677480755764 78.41240823064443 167.67130280878774 H 0.0 **** 0.06
20693 H 77.1057256743914 78.73568708046476 169.23855263499541 H 0.0 **** 0.06
20694 H 75.52178081994133 79.45919835228243 168.8652097710714 H 0.0 **** 0.06
20695 H 76.98180372207891 80.02995428524851 168.02150928825867 H 0.0 **** 0.06
20696 C 212.28796223853118 1.6056383121621138 154.68016370782397 C 0.0 **** -0.24
20697 H 212.66875622657423 1.7811968300022158 155.68698857153635 H 0.0 **** 0.06
20698 H 211.2062414415596 1.4747914918739298 154.72011838379353 H 0.0 **** 0.06
20699 H 212.74863392435842 0.7079971295764551 154.2684951144256 H 0.0 **** 0.06
20700 H 212.52781944027282 2.4604435313015074 154.0481062023032 H 0.0 **** 0.06
20701 C 56.64744163086628 201.06954581597344 107.25231388502829 C 0.0 **** -0.24
20702 H 56.42230632306561 200.78213379745108 108.27970990110583 H 0.0 **** 0.06
20703 H 55.99578211207758 201.8907687188539 106.95397523262096 H 0.0 **** 0.06
20704 H 56.482674976479075 200.2167747032459 106.59354342449353 H 0.0 **** 0.06
20705 H 57.687732237226 201.3871007996122 107.1835794852417 H 0.0 **** 0.06
20706 C 62.54103187063464 202.08258101597698 38.19401980864805 C 0.0 **** -0.24
20707 H 61.539807414213016 201.7245563444579 38.43163934074599 H 0.0 **** 0.06
20708 H 63.097540533636334 201.293556694282 37.687509318627946 H 0.0 **** 0.06
20709 H 63.055867440694556 202.35868452996712 39.11382267278037 H 0.0 **** 0.06
20710 H 62.47042977272076 202.95375891804534 37.54226329438728 H 0.0 **** 0.06
20711 C 17.9264076380492 121.45231850198043 164.93395651126923 C 0.0 **** -0.24
20712 H 18.089357948725933 122.41779062525795 164.45525732840713 H 0.0 **** 0.06
20713 H 16.908581009742875 121.11527253451167 164.73449942716627 H 0.0 **** 0.06
20714 H 18.071709305516777 121.5517921124803 166.00991541984854 H 0.0 **** 0.06
20715 H 18.63474033250472 120.72560347997951 164.53718051211607 H 0.0 **** 0.06
20716 C 28.787801184431714 31.353404169085252 141.81942666988874 C 0.0 **** -0.24
20717 H 29.39674150534603 30.761986589134438 142.5022194979784 H 0.0 **** 0.06
20718 H 28.215798735453575 32.0882600824153 142.3863209541929 H 0.0 **** 0.06
20719 H 28.105085784155847 30.697179443060264 141.2806225219357 H 0.0 **** 0.06
20720 H 29.434270116624816 31.866981428300022 141.1071665556275 H 0.0 **** 0.06
20721 C 116.09835012760537 65.48111435241836 43.63506195015975 C 0.0 **** -0.24
20722 H 115.75281803162203 65.04811502811562 42.69614539461962 H 0.0 **** 0.06
20723 H 116.53626893892324 64.70065188833163 44.2562443475194 H 0.0 **** 0.06
20724 H 115.25507753650423 65.93335180131078 44.15811049695118 H 0.0 **** 0.06
20725 H 116.8485949350641 66.24472929049399 43.4273238715426 H 0.0 **** 0.06
20726 C 200.73382888936027 67.70219179173216 110.62589090387185 C 0.0 **** -0.24
20727 H 200.01828444246178 67.94275111965578 111.41207757925083 H 0.0 **** 0.06
20728 H 200.8421430185956 68.55773322316622 109.95938430827356 H 0.0 **** 0.06
20729 H 200.3750782155638 66.84300865540763 110.05911808393573 H 0.0 **** 0.06
20730 H 201.69895069523614 67.46507428764761 111.07345466912948 H 0.0 **** 0.06
20731 C 59.622003023763284 213.73425045818755 38.289959299375994 C 0.0 **** -0.24
20732 H 58.90280052306781 213.19859372814167 37.670170003821994 H 0.0 **** 0.06
20733 H 60.45730520109049 213.0752838939429 38.529079549654 H 0.0 **** 0.06
20734 H 59.13784490439383 214.0571382121431 39.211131126752065 H 0.0 **** 0.06
20735 H 59.98940628213893 214.6060892938145 37.748207478672725 H 0.0 **** 0.06
20736 C 209.34286396918367 183.96430908283048 149.58096742230197 C 0.0 **** -0.24
20737 H 209.97064862427823 184.1682841746147 150.44835414402672 H 0.0 **** 0.06
20738 H 208.4893063193257 183.35913003602707 149.8856702096295 H 0.0 **** 0.06
20739 H 209.9230929316306 183.4247030572247 148.83193548822885 H 0.0 **** 0.06
20740 H 208.98907243884742 184.90528275665497 149.1586390554528 H 0.0 **** 0.06
20741 C 55.18281388350748 138.86403065699824 37.57702430455629 C 0.0 **** -0.24
20742 H 55.41227908224286 137.82098803754457 37.36134181469792 H 0.0 **** 0.06
20743 H 54.23063164223737 138.92426387103762 38.10530178585313 H 0.0 **** 0.06
20744 H 55.11516042290265 139.42125161990572 36.64212860910753 H 0.0 **** 0.06
20745 H 55.97140477183197 139.28859135386438 38.19713940509217 H 0.0 **** 0.06
20746 C 205.10937996797438 96.1633522569993 16.09138483352706 C 0.0 **** -0.24
20747 H 204.82296794724206 95.12241374472376 15.936852222735524 H 0.0 **** 0.06
20748 H 204.2135234645113 96.77070211190835 16.215985781398615 H 0.0 **** 0.06
20749 H 205.67210294347638 96.51595598001347 15.226708238876938 H 0.0 **** 0.06
20750 H 205.72989037143964 96.24050210646448 16.98415965137724 H 0.0 **** 0.06
20751 C 2.3220286873433054 80.83891765455093 216.90239278234273 C 0.0 **** -0.24
20752 H 3.0870719163278295 81.61124935542284 216.97900695026092 H 0.0 **** 0.06
20753 H 1.3402603289263766 81.28143784199597 217.07181508243875 H 0.0 **** 0.06
20754 H 2.5069467290934995 80.06759801212445 217.64991232089065 H 0.0 **** 0.06
20755 H 2.3528184859902126 80.39433508729633 215.9068715659331 H 0.0 **** 0.06
20756 C 182.41584908920743 113.60360432645079 197.1477775036034 C 0.0 **** -0.24
20757 H 182.17882846195926 114.66608407515623 197.20452382697496 H 0.0 **** 0.06
20758 H 181.65598238377956 113.09335259270738 196.5555690090669 H 0.0 **** 0.06
20759 H 182.43753132862085 113.18203244497012 198.15297060666165 H 0.0 **** 0.06
20760 H 183.3914467794853 113.47382130573608 196.67833563680523 H 0.0 **** 0.06
20761 C 125.17091913771019 165.64959583648337 185.69476467178043 C 0.0 **** -0.24
20762 H 124.79134731594336 164.9427946684054 184.9567440208339 H 0.0 **** 0.06
20763 H 126.22331097277309 165.85241354019126 185.49451095159554 H 0.0 **** 0.06
20764 H 125.06577347235888 165.22461343778448 186.69216101163934 H 0.0 **** 0.06
20765 H 124.60351942198939 166.57841128212118 185.63321328883728 H 0.0 **** 0.06
20766 C 186.46751499089058 152.59002303509124 184.32413257502606 C 0.0 **** -0.24
20767 H 186.70620251548036 153.29955799520252 183.53142988530948 H 0.0 **** 0.06
20768 H 187.04547305539455 152.8341363700029 185.21516528091476 H 0.0 **** 0.06
20769 H 186.7156273246602 151.58102273972906 183.99388899732213 H 0.0 **** 0.06
20770 H 185.40305927545887 152.64564088507785 184.55246309106988 H 0.0 **** 0.06
20771 C 160.1146234929104 161.8744354354701 146.11461586516896 C 0.0 **** -0.24
20772 H 160.94676233872843 162.24099779742392 145.51459745592638 H 0.0 **** 0.06
20773 H 159.7294494151101 162.68517501369934 146.73449684840858 H 0.0 **** 0.06
20774 H 160.45795534239824 161.06095855933958 146.7535687163674 H 0.0 **** 0.06
20775 H 159.3244260136184 161.51235331515818 145.4571977242951 H 0.0 **** 0.06
20776 C 98.92368513804227 23.21029478312255 165.2833608155666 C 0.0 **** -0.24
20777 H 99.38398054144814 24.132283370989157 165.63975292613452 H 0.0 **** 0.06
20778 H 99.11994130390435 23.096150686926833 164.21751806439016 H 0.0 **** 0.06
20779 H 97.84712328647329 23.25349882258351 165.45197323318558 H 0.0 **** 0.06
20780 H 99.3424721615528 22.36197536841837 165.82396300043206 H 0.0 **** 0.06
20781 C 145.78360863922506 163.77717867772077 29.83662817517441 C 0.0 **** -0.24
20782 H 146.34257027526218 162.92014676053037 29.46063838470647 H 0.0 **** 0.06
20783 H 145.7179745863375 164.5366302877648 29.05778123735223 H 0.0 **** 0.06
20784 H 146.293934248872 164.18963933627055 30.706923591515903 H 0.0 **** 0.06
20785 H 144.7801632462277 163.45903112397593 30.120638079049286 H 0.0 **** 0.06
20786 C 58.87536168410884 95.59284573968205 72.22927075021961 C 0.0 **** -0.24
20787 H 58.322294295856864 96.45180954758564 72.61122860484086 H 0.0 **** 0.06
20788 H 58.21474697133459 94.72755656037253 72.182644998915 H 0.0 **** 0.06
20789 H 59.713010863821864 95.37630280926226 72.89286562759317 H 0.0 **** 0.06
20790 H 59.25128962949776 95.81786212057557 71.23151630441895 H 0.0 **** 0.06
20791 C 79.10232636457397 91.11665170981762 55.66031366231117 C 0.0 **** -0.24
20792 H 80.0790200483541 90.93362728507405 55.21181098359173 H 0.0 **** 0.06
20793 H 79.1021987879455 90.75624271199727 56.68943294090187 H 0.0 **** 0.06
20794 H 78.33668169680561 90.59150521132567 55.09000276466928 H 0.0 **** 0.06
20795 H 78.89335583977248 92.18669243213448 55.64976281999061 H 0.0 **** 0.06
20796 C 11.03809483963397 146.9609990229028 9.298663601896394 C 0.0 **** -0.24
20797 H 10.06245679063619 147.31696268205735 9.630670257446951 H 0.0 **** 0.06
20798 H 10.970227572561384 146.63222658628246 8.261468894104794 H 0.0 **** 0.06
20799 H 11.351915409198568 146.1264499847319 9.925240556765416 H 0.0 **** 0.06
20800 H 11.76556535138593 147.7685902022426 9.377481558111938 H 0.0 **** 0.06
20801 C 35.910479588586895 180.0000491278708 81.45360424499079 C 0.0 **** -0.24
20802 H 35.334732502308896 179.07995936653595 81.55605554029505 H 0.0 **** 0.06
20803 H 36.22376350463114 180.34340985161498 82.43971465666375 H 0.0 **** 0.06
20804 H 35.292783150313596 180.76483297800067 80.98109822751697 H 0.0 **** 0.06
20805 H 36.78973101941932 179.81160105878524 80.83740509974875 H 0.0 **** 0.06
20806 C 60.75201243579389 203.00623833617067 109.64319853413555 C 0.0 **** -0.24
20807 H 61.56530928146961 202.70824744363546 110.30467854170762 H 0.0 **** 0.06
20808 H 59.87854027620588 202.38354138022726 109.83949688713868 H 0.0 **** 0.06
20809 H 61.06306519172357 202.88154810919792 108.60598126311531 H 0.0 **** 0.06
20810 H 60.50094100283694 204.05137211351902 109.82434118657928 H 0.0 **** 0.06
20811 C 91.94892010008864 86.61367433624325 36.14746242732599 C 0.0 **** -0.24
20812 H 91.40680082585378 87.54297362387963 35.97368194460705 H 0.0 **** 0.06
20813 H 91.51009770308197 85.81893308439878 35.544738301218956 H 0.0 **** 0.06
20814 H 91.88417601925285 86.34786191697724 37.20328538785242 H 0.0 **** 0.06
20815 H 92.99494578879397 86.74507029059917 35.87034963349561 H 0.0 **** 0.06
20816 C 112.54296669284032 195.11171386463337 57.35209296771632 C 0.0 **** -0.24
20817 H 112.62906730277469 196.07684702459295 57.8510065877162 H 0.0 **** 0.06
20818 H 113.5056126274895 194.8382518005769 56.920303160699916 H 0.0 **** 0.06
20819 H 111.79497985664314 195.1772705529777 56.56136787905473 H 0.0 **** 0.06
20820 H 112.24009592798039 194.3552165379414 58.07579402850968 H 0.0 **** 0.06
20821 C 159.75831443952086 214.04438632759081 65.02364447637721 C 0.0 **** -0.24
20822 H 159.529053182426 215.10531756829158 65.12389075592128 H 0.0 **** 0.06
20823 H 159.1886120774534 213.62607472393543 64.19310442401735 H 0.0 **** 0.06
20824 H 159.49201248588756 213.52635719680438 65.9450836927744 H 0.0 **** 0.06
20825 H 160.82432913861535 213.9197846416125 64.8318366871527 H 0.0 **** 0.06
20826 C 104.90548314573088 107.34742232724598 134.90157673709405 C 0.0 **** -0.24
20827 H 104.19400069591389 106.59430654994601 134.56287408523696 H 0.0 **** 0.06
20828 H 105.5950366171811 106.89873624902312 135.6169772950562 H 0.0 **** 0.06
20829 H 104.36793916321356 108.16574821566529 135.37981238047848 H 0.0 **** 0.06
20830 H 105.46424937184553 107.72924159968268 134.04751264521803 H 0.0 **** 0.06
20831 C 204.59044256220977 156.54838763037105 214.2326736362079 C 0.0 **** -0.24
20832 H 203.72930817581585 156.6962754222888 214.8836973622511 H 0.0 **** 0.06
20833 H 205.41186913410945 157.1832178842996 214.56728251183887 H 0.0 **** 0.06
20834 H 204.32133986914545 156.81108437089046 213.20931626477827 H 0.0 **** 0.06
20835 H 204.89980586076834 155.5036273776763 214.26988263010787 H 0.0 **** 0.06
20836 C 100.1855432091376 27.27214152196302 152.9234457357598 C 0.0 **** -0.24
20837 H 100.28989102042989 28.355176716161665 152.98361573174418 H 0.0 **** 0.06
20838 H 100.81332983035655 26.89208638373232 152.11670215279236 H 0.0 **** 0.06
20839 H 99.14516206818381 27.01787463699617 152.72558584326816 H 0.0 **** 0.06
20840 H 100.49657463067923 26.824207212370126 153.8670799027787 H 0.0 **** 0.06
20841 C 52.10620666130882 116.90961496643365 27.255926428643846 C 0.0 **** -0.24
20842 H 52.606873622197966 116.03044717554712 26.850594807718323 H 0.0 **** 0.06
20843 H 52.47011169328326 117.80195520945108 26.746272466760274 H 0.0 **** 0.06
20844 H 52.31834331571372 116.98823053523279 28.322466056976623 H 0.0 **** 0.06
20845 H 51.03125535987404 116.81688473929773 27.10538434548704 H 0.0 **** 0.06
20846 C 173.00291532917737 68.83898439593494 168.7859327628507 C 0.0 **** -0.24
20847 H 172.66198587698693 69.37887926908394 167.90255811374112 H 0.0 **** 0.06
20848 H 174.0520450172665 68.57016026760249 168.6640860686169 H 0.0 **** 0.06
20849 H 172.40798768446706 67.93513059335578 168.91135410344495 H 0.0 **** 0.06
20850 H 172.8903498996213 69.47403671937741 169.66514077117927 H 0.0 **** 0.06
20851 C 17.624017926573018 98.59538647209939 47.39247676768508 C 0.0 **** -0.24
20852 H 17.808507589026092 99.51150937109759 47.954170231375386 H 0.0 **** 0.06
20853 H 17.995195488651518 97.74152580159159 47.95846907691062 H 0.0 **** 0.06
20854 H 18.137671277545863 98.64769430616099 46.43294654504932 H 0.0 **** 0.06
20855 H 16.552244318025515 98.48217668279199 47.22468511461577 H 0.0 **** 0.06
20856 C 68.55291204650266 40.712391714614455 158.78664231880444 C 0.0 **** -0.24
20857 H 68.86432165373874 39.73225083513313 158.42564086814787 H 0.0 **** 0.06
20858 H 69.32628481013623 41.44590799948588 158.55793164782267 H 0.0 **** 0.06
20859 H 68.39850836770073 40.67016862209766 159.8647197034209 H 0.0 **** 0.06
20860 H 67.62275483242814 41.00068519580532 158.29699493368827 H 0.0 **** 0.06
20861 C 123.04670532793882 201.26337735472674 108.09681003076912 C 0.0 **** -0.24
20862 H 122.64099473808473 200.9569223364808 109.06067639414039 H 0.0 **** 0.06
20863 H 124.05038104237671 201.66486707666553 108.23622738364634 H 0.0 **** 0.06
20864 H 122.40627059214036 202.03026208549636 107.66034891357685 H 0.0 **** 0.06
20865 H 123.08819439967762 200.40163334242322 107.42989919141098 H 0.0 **** 0.06
20866 C 117.28689945357695 43.640420911678234 211.45243961151272 C 0.0 **** -0.24
20867 H 117.40198404528115 42.5569699668888 211.45328035319255 H 0.0 **** 0.06
20868 H 117.68173024992996 44.04791579493269 210.5211777162852 H 0.0 **** 0.06
20869 H 117.83171337950552 44.064878199675206 212.29484088668974 H 0.0 **** 0.06
20870 H 116.22994653386718 43.892709350344546 211.5398021404613 H 0.0 **** 0.06
20871 C 95.51840503498715 63.68077451769125 190.58066405243108 C 0.0 **** -0.24
20872 H 94.73358977149792 63.23789577679713 189.96628747084495 H 0.0 **** 0.06
20873 H 96.30096281792822 62.94234080872661 190.75799179372973 H 0.0 **** 0.06
20874 H 95.09591389449025 64.00002593744944 191.5338539175193 H 0.0 **** 0.06
20875 H 95.94128738058208 64.54182087194192 190.0638247915613 H 0.0 **** 0.06
20876 C 161.164949705846 61.79236542494772 33.1557146140953 C 0.0 **** -0.24
20877 H 161.3647641910291 60.73064293902121 33.00680963685285 H 0.0 **** 0.06
20878 H 160.11720761776812 61.9991468240367 32.939725978350495 H 0.0 **** 0.06
20879 H 161.79739352363669 62.37717208451369 32.4880724055613 H 0.0 **** 0.06
20880 H 161.3834523539124 62.06082789176878 34.18969655177753 H 0.0 **** 0.06
20881 C 12.701409989027312 173.0740253542755 193.3763218096163 C 0.0 **** -0.24
20882 H 11.76121860846689 172.53216240727548 193.26757038076744 H 0.0 **** 0.06
20883 H 13.162406910041625 173.20002125234996 192.39714256474002 H 0.0 **** 0.06
20884 H 13.371632132946544 172.50956848527866 194.0247258964213 H 0.0 **** 0.06
20885 H 12.507269351834182 174.05168964368744 193.8163343893938 H 0.0 **** 0.06
20886 C 131.9135746448594 88.19066928252293 140.16909669444516 C 0.0 **** -0.24
20887 H 132.32911047604443 88.25223864690808 139.16345047551272 H 0.0 **** 0.06
20888 H 131.966888238916 89.16901215386615 140.64529833322365 H 0.0 **** 0.06
20889 H 132.4848720622836 87.4691686100049 140.75394641202837 H 0.0 **** 0.06
20890 H 130.8729344828231 87.8699742128296 140.1129551224742 H 0.0 **** 0.06
20891 C 188.5517838872021 68.2759051158128 7.023612363266352 C 0.0 **** -0.24
20892 H 188.07636426075584 67.44402084766138 7.543425678353287 H 0.0 **** 0.06
20893 H 189.1015640912185 67.89868409098959 6.160895622519661 H 0.0 **** 0.06
20894 H 189.23958461136837 68.78219385356648 7.700655204704219 H 0.0 **** 0.06
20895 H 187.78851345431215 68.97945156199185 6.68898599659687 H 0.0 **** 0.06
20896 C 126.7104893493452 11.698457030746638 204.46230264444384 C 0.0 **** -0.24
20897 H 126.24194360982445 11.320162297643279 203.55433067142218 H 0.0 **** 0.06
20898 H 126.1502645089483 11.352700414755049 205.3311263491917 H 0.0 **** 0.06
20899 H 126.71410549442093 12.788631486979426 204.44181535880483 H 0.0 **** 0.06
20900 H 127.73561364035025 11.332589217700104 204.5209717961501 H 0.0 **** 0.06
20901 C 212.26363386713038 56.38838653416377 75.50246871375073 C 0.0 **** -0.24
20902 H 212.57542128566027 55.96541564155331 76.45737780053206 H 0.0 **** 0.06
20903 H 211.64715218376094 55.66386281888418 74.96959924490888 H 0.0 **** 0.06
20904 H 213.14434180947592 56.625912342917275 74.90576598423748 H 0.0 **** 0.06
20905 H 211.68766831613078 57.29644601852732 75.67829470351317 H 0.0 **** 0.06
20906 C 47.39519472494062 37.16481791815369 81.55533441388047 C 0.0 **** -0.24
20907 H 47.65508532088141 37.59306490910329 80.58704957122205 H 0.0 **** 0.06
20908 H 47.41634997352975 36.07639385690031 81.48802407924296 H 0.0 **** 0.06
20909 H 46.39603860536339 37.492901922946146 81.84164729902477 H 0.0 **** 0.06
20910 H 48.11546172157141 37.496146048272266 82.30374290539709 H 0.0 **** 0.06
20911 C 72.79306756087759 1.5378091739334252 71.05321384020021 C 0.0 **** -0.24
20912 H 73.20761341377842 1.8709716608535416 70.10131277161912 H 0.0 **** 0.06
20913 H 72.17858564774711 0.6525371307166097 70.89088849767342 H 0.0 **** 0.06
20914 H 72.1816605171232 2.3321402718346746 71.4811456888483 H 0.0 **** 0.06
20915 H 73.6057684513823 1.2955453207997607 71.7374700878679 H 0.0 **** 0.06
20916 C 208.73360650478745 143.2174276058002 76.04432173525568 C 0.0 **** -0.24
20917 H 209.8112989147302 143.36750366654115 76.11964376308775 H 0.0 **** 0.06
20918 H 208.33978097067669 142.921021257367 77.0165284327263 H 0.0 **** 0.06
20919 H 208.52706738540024 142.434279059649 75.31471835885735 H 0.0 **** 0.06
20920 H 208.25887180684555 144.14524658127146 75.72567452260041 H 0.0 **** 0.06
20921 C 172.99139339872042 50.43728212309391 151.96331182419107 C 0.0 **** -0.24
20922 H 173.6523154053021 49.865994886927865 152.61518691353353 H 0.0 **** 0.06
20923 H 173.5377660090721 50.74639659321214 151.0719581570762 H 0.0 **** 0.06
20924 H 172.6322591895311 51.319256222249635 152.4940692571198 H 0.0 **** 0.06
20925 H 172.14264511577733 49.816974968107814 151.6735817097569 H 0.0 **** 0.06
20926 C 216.6682227064552 25.652420380707753 92.38400640836808 C 0.0 **** -0.24
20927 H 217.00145329632744 25.025234394770962 91.55746830237653 H 0.0 **** 0.06
20928 H 216.36662220141574 25.019783212295522 93.22019210789291 H 0.0 **** 0.06
20929 H 215.82045861730052 26.25720312113218 92.06203277093043 H 0.0 **** 0.06
20930 H 217.48281702862337 26.305344307945603 92.69740483213111 H 0.0 **** 0.06
20931 C 192.5602976579895 106.21270241700644 193.73454636092794 C 0.0 **** -0.24
20932 H 192.29834965339694 105.15953435996282 193.83701794813348 H 0.0 **** 0.06
20933 H 193.1062943894446 106.53799260407571 194.62126335948585 H 0.0 **** 0.06
20934 H 191.65081691844907 106.8046621675292 193.62934377577835 H 0.0 **** 0.06
20935 H 193.18624100323666 106.34749938577197 192.85242627694868 H 0.0 **** 0.06
20936 C 215.7516302098727 144.36340338037508 215.59123674489848 C 0.0 **** -0.24
20937 H 215.61159223806382 144.87234015793905 216.5455254222664 H 0.0 **** 0.06
20938 H 214.95108353787154 143.63752456439 215.44626047505113 H 0.0 **** 0.06
20939 H 216.71325168596158 143.8511444077867 215.5911940432246 H 0.0 **** 0.06
20940 H 215.72966319331496 145.0954534759383 214.78397145785723 H 0.0 **** 0.06
20941 C 25.05622761035528 99.47766123640191 99.53105905611949 C 0.0 **** -0.24
20942 H 24.568377566311653 98.97776448497574 100.36705109354449 H 0.0 **** 0.06
20943 H 25.659212350364214 98.7566752035945 98.97756315846374 H 0.0 **** 0.06
20944 H 25.696749784820753 100.274828420568 99.90834536774673 H 0.0 **** 0.06
20945 H 24.299821415252183 99.90168679734525 98.87011795434933 H 0.0 **** 0.06
20946 C 90.87333025945112 110.93050724121868 0.6740752147176892 C 0.0 **** -0.24
20947 H 90.80824473554254 109.86516860090914 0.4515249888856232 H 0.0 **** 0.06
20948 H 91.91305274526069 111.25065925013313 0.6146617270687642 H 0.0 **** 0.06
20949 H 90.492220247404 111.1156452308805 1.6780454381622647 H 0.0 **** 0.06
20950 H 90.27772724512867 111.4880152577402 -0.0497300217790837 H 0.0 **** 0.06
20951 C 148.46467411598485 66.35665662294292 201.74662715907309 C 0.0 **** -0.24
20952 H 147.9536719277612 65.65078691094362 201.09117016950708 H 0.0 **** 0.06
20953 H 148.38482830004818 67.36162658336968 201.33044308261458 H 0.0 **** 0.06
20954 H 149.51543944447576 66.08018798033135 201.8284222446258 H 0.0 **** 0.06
20955 H 148.00472263820188 66.33397653518813 202.73447400202127 H 0.0 **** 0.06
20956 C 54.29547659980021 90.45135586214728 136.01885950098023 C 0.0 **** -0.24
20957 H 55.09259897058037 89.97538887631383 135.4485302310208 H 0.0 **** 0.06
20958 H 53.440665902106716 90.63062939258604 135.36778593684738 H 0.0 **** 0.06
20959 H 54.65301249048767 91.3998810700598 136.41973997664343 H 0.0 **** 0.06
20960 H 53.99760474277207 89.7992419306696 136.84039034472556 H 0.0 **** 0.06
20961 C 145.0779354129525 52.23109373483082 76.18453174752888 C 0.0 **** -0.24
20962 H 145.83075216125116 51.88661291520506 75.47511152312624 H 0.0 **** 0.06
20963 H 144.47288893317852 51.38468619296158 76.51092749292216 H 0.0 **** 0.06
20964 H 144.43968246132476 52.97216829842384 75.70502077763332 H 0.0 **** 0.06
20965 H 145.57142352907027 52.680052546285324 77.04755355027423 H 0.0 **** 0.06
20966 C 62.5374708536567 92.1206284712968 57.97772798112317 C 0.0 **** -0.24
20967 H 62.52690309115508 91.14413756288401 58.46252997639235 H 0.0 **** 0.06
20968 H 63.16801673930409 92.80246074648089 58.54724246707252 H 0.0 **** 0.06
20969 H 61.5226865821795 92.51496008597168 57.93304484369936 H 0.0 **** 0.06
20970 H 62.93209996864566 92.01903316810463 56.96658684424138 H 0.0 **** 0.06
20971 C 144.36342599774036 181.98873106755934 66.90655128435588 C 0.0 **** -0.24
20972 H 144.6797896378489 182.94201571825403 66.48436703399864 H 0.0 **** 0.06
20973 H 143.99809932833705 182.14378703857807 67.92179076796467 H 0.0 **** 0.06
20974 H 145.20952492636206 181.301065986542 66.92636274327626 H 0.0 **** 0.06
20975 H 143.56712940756285 181.56664819903392 66.29424587587238 H 0.0 **** 0.06
20976 C 24.733479612976453 175.57180002265162 182.77146400891488 C 0.0 **** -0.24
20977 H 25.37492591500616 175.0456517526715 183.47790279845464 H 0.0 **** 0.06
20978 H 24.680548702788244 176.62541781612117 183.04565737234736 H 0.0 **** 0.06
20979 H 23.733876949060303 175.13871347044534 182.79681509469464 H 0.0 **** 0.06
20980 H 25.144990311604346 175.47699479907803 181.76738929858888 H 0.0 **** 0.06
20981 C 108.48981598712594 177.52719130323197 113.46403920762778 C 0.0 **** -0.24
20982 H 107.60307806905443 177.22871964980365 114.02382906503853 H 0.0 **** 0.06
20983 H 108.18986265746464 178.10511809370283 112.58966299090703 H 0.0 **** 0.06
20984 H 109.03349911902511 176.63834325804856 113.14454752574584 H 0.0 **** 0.06
20985 H 109.1320267916396 178.13724371361377 114.10033748600229 H 0.0 **** 0.06
20986 C 160.11801847902774 144.3463945715818 66.02218638738374 C 0.0 **** -0.24
20987 H 160.41542671962372 144.2991057779151 67.06984102889858 H 0.0 **** 0.06
20988 H 161.00780804934004 144.3682381868635 65.39367346076455 H 0.0 **** 0.06
20989 H 159.5291813441952 145.24795081649359 65.85246807210584 H 0.0 **** 0.06
20990 H 159.51896807325124 143.4697910761929 65.77483225611485 H 0.0 **** 0.06
20991 C 161.14026587366928 201.62198981111558 151.73828929466566 C 0.0 **** -0.24
20992 H 161.17130053781406 201.61246426248817 150.6487351420161 H 0.0 **** 0.06
20993 H 160.1808863414546 202.02043521163768 152.0702069554755 H 0.0 **** 0.06
20994 H 161.9460387277268 202.2499230774029 152.1182393631321 H 0.0 **** 0.06
20995 H 161.26159115798637 200.6065516671153 152.11441251145476 H 0.0 **** 0.06
20996 C 145.733464142177 171.3044717907599 25.816727306089604 C 0.0 **** -0.24
20997 H 146.07515466744644 171.78571378498884 26.732661174156306 H 0.0 **** 0.06
20998 H 146.55860602416027 171.2451048732184 25.10729614443008 H 0.0 **** 0.06
20999 H 144.9213140015014 171.88780246338075 25.382200411911356 H 0.0 **** 0.06
21000 H 145.37727238739063 170.3000842158454 26.044979719307946 H 0.0 **** 0.06
21001 C 11.148544628598415 215.278666402091 111.51204363992723 C 0.0 **** -0.24
21002 H 10.136837889766895 215.3697134180988 111.11512289985909 H 0.0 **** 0.06
21003 H 11.437227256773156 216.21613851121487 111.98765643043423 H 0.0 **** 0.06
21004 H 11.838903147737113 215.05583349916748 110.6987000817834 H 0.0 **** 0.06
21005 H 11.178912361346875 214.47374660452758 112.24633108715535 H 0.0 **** 0.06
21006 C 2.429456761302667 151.63513055013107 101.14002158855031 C 0.0 **** -0.24
21007 H 2.7957438889478112 152.4550221904296 100.52246465252459 H 0.0 **** 0.06
21008 H 1.674112720361883 152.01131035953665 101.83090456637065 H 0.0 **** 0.06
21009 H 3.25784294914034 151.2074868871925 101.70556855592638 H 0.0 **** 0.06
21010 H 1.990481066274377 150.86799118660082 100.50320163777813 H 0.0 **** 0.06
21011 C 210.70468189672974 22.514972199348733 73.51388778980288 C 0.0 **** -0.24
21012 H 211.2345354902442 21.570777279063748 73.63551114537142 H 0.0 **** 0.06
21013 H 210.0247195550485 22.66139973348811 74.35323237396688 H 0.0 **** 0.06
21014 H 210.1355845046218 22.49423908752192 72.58386496622262 H 0.0 **** 0.06
21015 H 211.42319005408453 23.333888734186303 73.48085945068738 H 0.0 **** 0.06
21016 C 25.040023841862308 168.12137815817383 161.03365466835965 C 0.0 **** -0.24
21017 H 24.782594895246575 167.41425220944512 161.8223595377315 H 0.0 **** 0.06
21018 H 25.879081159795703 167.7309793810214 160.45657168336268 H 0.0 **** 0.06
21019 H 25.31899903408174 169.07656859474142 161.47828170914732 H 0.0 **** 0.06
21020 H 24.181537054277555 168.26248098139789 160.377459152293 H 0.0 **** 0.06
21021 C 0.5130513736397901 70.17639369712158 158.8489668314749 C 0.0 **** -0.24
21022 H 1.1696483052118865 69.39166813180792 158.47314187993834 H 0.0 **** 0.06
21023 H -0.5160200712946974 69.956275691064 158.56293679670088 H 0.0 **** 0.06
21024 H 0.8123454457860646 71.13339441382182 158.42444029318824 H 0.0 **** 0.06
21025 H 0.5860865274723466 70.22077716977039 159.93523986188836 H 0.0 **** 0.06
21026 C 207.18346384919346 177.78188162654547 25.810466050225457 C 0.0 **** -0.24
21027 H 206.3664007640005 178.37695354790924 26.21709172820627 H 0.0 **** 0.06
21028 H 207.20331028162158 177.88599841452873 24.725379897214907 H 0.0 **** 0.06
21029 H 207.03608646556904 176.7337245748968 26.07246004566906 H 0.0 **** 0.06
21030 H 208.12860152885307 178.13130405545706 26.226226644343342 H 0.0 **** 0.06
21031 C 164.49453802926678 128.10895290874413 113.4080649620225 C 0.0 **** -0.24
21032 H 164.36047517534809 127.62679467744407 114.37604002180935 H 0.0 **** 0.06
21033 H 163.55211203577562 128.08672909084243 112.85870121608754 H 0.0 **** 0.06
21034 H 165.25815793430425 127.57753074971352 112.84004183976954 H 0.0 **** 0.06
21035 H 164.8045172093306 129.14257223026186 113.55654093863792 H 0.0 **** 0.06
21036 C 157.03726423975087 19.774969312467846 105.39945000390942 C 0.0 **** -0.24
21037 H 156.66595457675584 19.02459058241584 104.7018182785056 H 0.0 **** 0.06
21038 H 156.19461011240213 20.285520360919378 105.86642516060472 H 0.0 **** 0.06
21039 H 157.64922543635123 20.499704112331585 104.8611832266241 H 0.0 **** 0.06
21040 H 157.63965948497622 19.290824295142684 106.16724860065484 H 0.0 **** 0.06
21041 C 47.753439158970664 97.89407445980176 58.30232793027683 C 0.0 **** -0.24
21042 H 47.802230596562694 98.15598489954512 57.24509500216499 H 0.0 **** 0.06
21043 H 47.02857705512817 98.53702328328653 58.80198569677053 H 0.0 **** 0.06
21044 H 48.73448643946 98.02881631684626 58.75624089261922 H 0.0 **** 0.06
21045 H 47.44612693029022 96.85330333157363 58.403504931995215 H 0.0 **** 0.06
21046 C 96.96758725332741 195.26270426987531 129.14383614983944 C 0.0 **** -0.24
21047 H 97.47735693766363 194.5506035714434 129.7922053254482 H 0.0 **** 0.06
21048 H 96.72920567147641 196.16341122362567 129.70985942496026 H 0.0 **** 0.06
21049 H 96.04684702502466 194.81543407237575 128.76763280045867 H 0.0 **** 0.06
21050 H 97.61496550738796 195.5201262389703 128.30639633804356 H 0.0 **** 0.06
21051 C 90.60050788190362 4.8759321499309465 58.96290690300002 C 0.0 **** -0.24
21052 H 91.47234460198511 5.381641499424859 59.37862307237732 H 0.0 **** 0.06
21053 H 90.39015110688008 5.271772874641215 57.9697718315238 H 0.0 **** 0.06
21054 H 89.74035173515172 5.04337829400464 59.61124811814382 H 0.0 **** 0.06
21055 H 90.80042748983736 3.8067114261725123 58.89316932159514 H 0.0 **** 0.06
21056 C 167.28976620536957 167.54692111272692 113.85519602437627 C 0.0 **** -0.24
21057 H 167.7823675022836 166.73017217335666 114.3832881353597 H 0.0 **** 0.06
21058 H 166.29255337232848 167.69705791684112 114.26956259158264 H 0.0 **** 0.06
21059 H 167.2106003149836 167.30040915339396 112.79693389574133 H 0.0 **** 0.06
21060 H 167.87283053191186 168.46004948053843 113.97286804057264 H 0.0 **** 0.06
21061 C 189.96048257686726 190.8645536591158 170.33228323512458 C 0.0 **** -0.24
21062 H 190.34153343623805 191.71248549823724 169.76383714079287 H 0.0 **** 0.06
21063 H 189.66546523975595 190.0710203323026 169.64523463571572 H 0.0 **** 0.06
21064 H 189.09762791955126 191.1784112356014 170.91859746523664 H 0.0 **** 0.06
21065 H 190.7389455647941 190.49521833225512 171.00000093901866 H 0.0 **** 0.06
21066 C 145.5550120336277 126.40980793584988 186.03751975682997 C 0.0 **** -0.24
21067 H 146.46930546237627 125.82606774265518 185.92769689688657 H 0.0 **** 0.06
21068 H 145.30603910523644 126.49707708508065 187.09501240912135 H 0.0 **** 0.06
21069 H 144.7406854618166 125.91100718511582 185.51248625933994 H 0.0 **** 0.06
21070 H 145.70526328483442 127.40290220567464 185.61619038522906 H 0.0 **** 0.06
21071 C 13.746992084810586 154.7313880160586 9.30591003335843 C 0.0 **** -0.24
21072 H 12.98458080946321 154.30568190642873 8.653326324928216 H 0.0 **** 0.06
21073 H 13.328212430416784 155.57832214964077 9.850208044741592 H 0.0 **** 0.06
21074 H 14.592748420889649 155.067019576569 8.705915192062065 H 0.0 **** 0.06
21075 H 14.08269910743661 153.9735767310121 10.01433222411896 H 0.0 **** 0.06
21076 C 214.44122216446573 115.40180515642504 43.518154732979156 C 0.0 **** -0.24
21077 H 215.40913428365823 115.64432298783748 43.07906433927582 H 0.0 **** 0.06
21078 H 213.84404091651209 114.84567958024832 42.794411640135536 H 0.0 **** 0.06
21079 H 213.92325678215832 116.32196301332732 43.78783141165468 H 0.0 **** 0.06
21080 H 214.59009254450726 114.79392509168207 44.41056639420947 H 0.0 **** 0.06
21081 C 192.0239145494151 148.7701532447162 61.85437518629982 C 0.0 **** -0.24
21082 H 192.45333566060867 148.5917552636855 62.84061289582371 H 0.0 **** 0.06
21083 H 191.75563930490136 149.82184604723483 61.75904543086273 H 0.0 **** 0.06
21084 H 191.13291028360783 148.15439275218426 61.72962119050925 H 0.0 **** 0.06
21085 H 192.7544557130642 148.5096976205258 61.08821683459752 H 0.0 **** 0.06
21086 C 153.35605605543918 169.74276147649408 118.62072605697303 C 0.0 **** -0.24
21087 H 152.48726112758584 169.37808914653027 119.16860524016663 H 0.0 **** 0.06
21088 H 153.03335807513776 170.18069080796047 117.6761229380315 H 0.0 **** 0.06
21089 H 154.0351930363991 168.91300222699357 118.42378268288137 H 0.0 **** 0.06
21090 H 153.86933911566751 170.49844587898048 119.21508008870289 H 0.0 **** 0.06
21091 C 10.335290494519313 129.7478291483523 172.84940888099817 C 0.0 **** -0.24
21092 H 9.851823761146932 129.16950472636825 173.63545587886603 H 0.0 **** 0.06
21093 H 9.822666102824144 129.57584961816633 171.90308948082424 H 0.0 **** 0.06
21094 H 11.377415133285183 129.43857695635234 172.75894073623323 H 0.0 **** 0.06
21095 H 10.292101002098605 130.80811217486507 173.0995302854593 H 0.0 **** 0.06
21096 C 168.98847704364562 141.50253067669985 114.24677844707213 C 0.0 **** -0.24
21097 H 168.43459980238177 142.3552364711112 113.85415271507622 H 0.0 **** 0.06
21098 H 169.90206659236193 141.85384361145026 114.7276303110167 H 0.0 **** 0.06
21099 H 169.24412150426096 140.82805560070028 113.43016935966244 H 0.0 **** 0.06
21100 H 168.3734635942365 140.97468004105065 114.97528739795644 H 0.0 **** 0.06
21101 C 32.845308128182765 70.95841809266733 13.627353192174553 C 0.0 **** -0.24
21102 H 33.569541106846145 70.45549512739444 12.98727178788269 H 0.0 **** 0.06
21103 H 31.872890440401306 70.47658044413993 13.521880584696163 H 0.0 **** 0.06
21104 H 32.76628250884711 72.00518149987948 13.333349004338402 H 0.0 **** 0.06
21105 H 33.17128352245284 70.89538061307525 14.665066272878676 H 0.0 **** 0.06
21106 C 189.4252889765805 171.80832532666557 199.1524715874132 C 0.0 **** -0.24
21107 H 189.70841614881303 170.93765421945494 199.74421474870164 H 0.0 **** 0.06
21108 H 190.01910815279703 172.6674227715077 199.4643810300734 H 0.0 **** 0.06
21109 H 188.36707291169174 172.02153132524 199.3053509781962 H 0.0 **** 0.06
21110 H 189.6060734219259 171.6049846247014 198.0972982991052 H 0.0 **** 0.06
21111 C 9.745614519066123 67.36090162488257 167.49416794199107 C 0.0 **** -0.24
21112 H 9.101396759593058 67.48847108628628 166.62380327140443 H 0.0 **** 0.06
21113 H 9.592744727651734 68.19068706687362 168.18431364087326 H 0.0 **** 0.06
21114 H 10.787115199133268 67.3410720532406 167.1742363125731 H 0.0 **** 0.06
21115 H 9.500361336534525 66.42369315780995 167.99227061931492 H 0.0 **** 0.06
21116 C 202.7165964965323 172.01991619170315 101.35055708823587 C 0.0 **** -0.24
21117 H 202.78330525950702 172.21171150475652 102.42201714589017 H 0.0 **** 0.06
21118 H 202.53881925085452 170.95692984669188 101.18235052678024 H 0.0 **** 0.06
21119 H 203.65006474249842 172.31327416371607 100.87097887868707 H 0.0 **** 0.06
21120 H 201.89375159332002 172.59754272626571 100.92928165562027 H 0.0 **** 0.06
21121 C 3.6007475244413953 133.32151338661663 115.86552724458583 C 0.0 **** -0.24
21122 H 4.595493729728069 133.00353717651262 116.1780928494229 H 0.0 **** 0.06
21123 H 3.001643982296038 132.4463332990332 115.61230617175819 H 0.0 **** 0.06
21124 H 3.6834442865213433 133.9709862067026 114.9941034458539 H 0.0 **** 0.06
21125 H 3.1216528426688583 133.86599342709007 116.67927837940341 H 0.0 **** 0.06
21126 C 167.7064743217755 208.95857348306805 76.98666022362067 C 0.0 **** -0.24
21127 H 168.0204018693155 208.6878442307036 77.9945914205968 H 0.0 **** 0.06
21128 H 166.72848277642655 209.43925575532379 77.02662576220189 H 0.0 **** 0.06
21129 H 167.64446328284728 208.05930717854105 76.37274092630133 H 0.0 **** 0.06
21130 H 168.43215569808788 209.64548857149236 76.5523765369615 H 0.0 **** 0.06
21131 C 2.8068565286380647 120.80008732751368 9.334515821662052 C 0.0 **** -0.24
21132 H 3.205100771941318 121.5168551551176 10.053288773070634 H 0.0 **** 0.06
21133 H 1.7652228458872798 120.58560567170925 9.575360257574815 H 0.0 **** 0.06
21134 H 3.3878209133336554 119.87953704851249 9.379778225502463 H 0.0 **** 0.06
21135 H 2.8686865151278766 121.22016020487492 8.33117692179026 H 0.0 **** 0.06
21136 C 156.15590295242453 22.63741487837808 141.71606869580978 C 0.0 **** -0.24
21137 H 155.33669837056902 23.29720732241833 142.0019146700406 H 0.0 **** 0.06
21138 H 156.84591611582096 22.53248883884629 142.55316516162924 H 0.0 **** 0.06
21139 H 156.6816679334754 23.06158078680221 140.86085609227246 H 0.0 **** 0.06
21140 H 155.75719854512437 21.659057310987976 141.4482732542237 H 0.0 **** 0.06
21141 C 180.84960954169082 182.00630955481935 9.394910113970113 C 0.0 **** -0.24
21142 H 181.93339993107705 182.00922300925254 9.27238637718932 H 0.0 **** 0.06
21143 H 180.58825189828798 182.51328104086465 10.323447254409999 H 0.0 **** 0.06
21144 H 180.49188262920558 180.97722666569376 9.429348481128699 H 0.0 **** 0.06
21145 H 180.38760572255347 182.52435231285017 8.555062334522248 H 0.0 **** 0.06
21146 C 189.40084105387285 12.123021064752209 12.780115508051892 C 0.0 **** -0.24
21147 H 190.38026587607942 11.93118026807197 13.218095256031404 H 0.0 **** 0.06
21148 H 189.22097359081468 11.414135173363249 11.971175680302082 H 0.0 **** 0.06
21149 H 189.37175760921951 13.138496993134112 12.387227610683908 H 0.0 **** 0.06
21150 H 188.63224854089617 12.005948205951555 13.54371594127656 H 0.0 **** 0.06
21151 C 46.63653971216627 92.5353750911748 28.114240297783184 C 0.0 **** -0.24
21152 H 46.34082973021307 92.27658530006293 29.131307453769878 H 0.0 **** 0.06
21153 H 47.64441462154181 92.16460128670725 27.92380890816483 H 0.0 **** 0.06
21154 H 46.6180714248717 93.61862300239592 27.995741281379708 H 0.0 **** 0.06
21155 H 45.94199310428985 92.08123362107004 27.407137278209362 H 0.0 **** 0.06
21156 C 194.4875266095056 24.156410618283672 12.0173952545249 C 0.0 **** -0.24
21157 H 193.666286933808 23.518354256211126 11.688628412268514 H 0.0 **** 0.06
21158 H 194.58181487924406 24.095680567310808 13.101724874123931 H 0.0 **** 0.06
21159 H 194.28658119850164 25.18700385800014 11.726354643070295 H 0.0 **** 0.06
21160 H 195.4148414888159 23.822275838799897 11.552381066317139 H 0.0 **** 0.06
21161 C 189.83221683055785 57.14424898425099 200.2915972283841 C 0.0 **** -0.24
21162 H 190.05262890798434 57.511164910734465 201.2931222278072 H 0.0 **** 0.06
21163 H 188.9644302088821 57.67105998507189 199.8945283580765 H 0.0 **** 0.06
21164 H 189.62134222270407 56.07560325505203 200.3337676491873 H 0.0 **** 0.06
21165 H 190.69162982267756 57.31952395538471 199.64373833487076 H 0.0 **** 0.06
21166 C 207.14560164427294 117.1412995665331 31.761276224074066 C 0.0 **** -0.24
21167 H 207.91014495736016 117.48158336118799 32.45950941855547 H 0.0 **** 0.06
21168 H 207.6122660903778 116.55072962587978 30.971718368109947 H 0.0 **** 0.06
21169 H 206.64499111557362 118.00439992050856 31.322170293040273 H 0.0 **** 0.06
21170 H 206.41593186620958 116.52855784858217 32.290641635345395 H 0.0 **** 0.06
21171 C 192.72113070542082 77.90410301684972 204.2079754393908 C 0.0 **** -0.24
21172 H 192.05751934942137 78.598329620632 203.69292445252472 H 0.0 **** 0.06
21173 H 193.4019308820051 78.4608828714176 204.85146004733696 H 0.0 **** 0.06
21174 H 193.29534970248625 77.33858800520716 203.47378577752804 H 0.0 **** 0.06
21175 H 192.12878754781676 77.21658835099925 204.8135531315965 H 0.0 **** 0.06
21176 C 171.65693253234866 192.16492337660839 54.416141400554665 C 0.0 **** -0.24
21177 H 172.32476143270213 192.78883816838302 55.010064819484626 H 0.0 **** 0.06
21178 H 170.6834558607011 192.6475305498118 54.33568890047468 H 0.0 **** 0.06
21179 H 171.54337382444106 191.19459936235288 54.90023010639982 H 0.0 **** 0.06
21180 H 172.0784064910947 192.02627382791727 53.42100014143341 H 0.0 **** 0.06
21181 C 198.46747797429478 164.9774215000719 191.92579887941397 C 0.0 **** -0.24
21182 H 197.8365323027441 165.5584470160691 192.59940564040858 H 0.0 **** 0.06
21183 H 198.3387756276554 165.33914200457318 190.90561354299834 H 0.0 **** 0.06
21184 H 198.1824049516782 163.92689392619835 191.978060878569 H 0.0 **** 0.06
21185 H 199.51081942360284 165.08680685388484 192.22135022413832 H 0.0 **** 0.06
21186 C 85.63168110643925 91.5370025299657 79.97239328794707 C 0.0 **** -0.24
21187 H 86.48989726304067 91.1689330374687 79.41100661370656 H 0.0 **** 0.06
21188 H 85.1470746446116 90.70373875892521 80.48199137915442 H 0.0 **** 0.06
21189 H 84.92392052523563 92.00535832453498 79.28936259742478 H 0.0 **** 0.06
21190 H 85.96554144493184 92.2681031650584 80.70875955154555 H 0.0 **** 0.06
21191 C 116.86747025429464 170.63596446566896 176.60284955090526 C 0.0 **** -0.24
21192 H 116.13581636751961 169.83374314217423 176.69454830174607 H 0.0 **** 0.06
21193 H 116.43604080498413 171.4574651870825 176.0312567543735 H 0.0 **** 0.06
21194 H 117.75372272241894 170.2619030285186 176.0899014569818 H 0.0 **** 0.06
21195 H 117.14432530225703 170.98937053260667 177.5960174964002 H 0.0 **** 0.06
21196 C 210.11399381837037 200.40356196825272 65.42343590895854 C 0.0 **** -0.24
21197 H 210.26215333754848 201.1586930336273 66.19514243407656 H 0.0 **** 0.06
21198 H 209.81951937859566 199.46216036318856 65.88773426791181 H 0.0 **** 0.06
21199 H 211.04235304085745 200.26169785047313 64.86963732429518 H 0.0 **** 0.06
21200 H 209.33024405459554 200.7324256698167 64.73998061827234 H 0.0 **** 0.06
21201 C 0.9121473972054375 151.64963143933574 158.58593732615913 C 0.0 **** -0.24
21202 H 0.9564339166116653 152.30869491707182 157.71857628120495 H 0.0 **** 0.06
21203 H -0.09531607062603342 151.24470255780847 158.6831181035501 H 0.0 **** 0.06
21204 H 1.1651062710217701 152.21508976899952 159.4838670865236 H 0.0 **** 0.06
21205 H 1.622464115385256 150.83303577625395 158.45827052404462 H 0.0 **** 0.06
21206 C 79.16884170389709 143.21951769111928 193.4173970633288 C 0.0 **** -0.24
21207 H 78.19786879758625 143.42228184944418 192.9667126620109 H 0.0 **** 0.06
21208 H 79.47210715791478 144.07235855881748 194.02677190571984 H 0.0 **** 0.06
21209 H 79.9060611890515 143.05375724869873 192.63238494366158 H 0.0 **** 0.06
21210 H 79.09977682243307 142.3311840750165 194.0455941444225 H 0.0 **** 0.06
21211 C 48.7088081152973 100.66621894098098 24.287849939593713 C 0.0 **** -0.24
21212 H 47.96812367811094 101.01532083555274 23.56772246146174 H 0.0 **** 0.06
21213 H 48.79654944603766 99.582102190779 24.221115715974804 H 0.0 **** 0.06
21214 H 48.39600419235478 100.94549159696642 25.294361062065093 H 0.0 **** 0.06
21215 H 49.672860089620116 101.12439981380582 24.067114318645807 H 0.0 **** 0.06
21216 C 169.082850904715 130.18843725058423 216.13016678194134 C 0.0 **** -0.24
21217 H 169.34964327146167 129.64417987075126 217.0359718770831 H 0.0 **** 0.06
21218 H 169.79192026743823 131.0011854677291 215.9722202272179 H 0.0 **** 0.06
21219 H 168.0774718925184 130.59789818293308 216.23628440797953 H 0.0 **** 0.06
21220 H 169.11037231937195 129.50957954837787 215.27823901715706 H 0.0 **** 0.06
21221 C 72.18286081312954 214.62872331810763 141.02578807857492 C 0.0 **** -0.24
21222 H 71.8935936057245 213.64852589610612 140.64809691305175 H 0.0 **** 0.06
21223 H 72.85703686972192 214.50634225223672 141.87396593111896 H 0.0 **** 0.06
21224 H 71.29431089611023 215.17308427439764 141.3432613941319 H 0.0 **** 0.06
21225 H 72.68854170401312 215.18698126018478 140.2369128854957 H 0.0 **** 0.06
21226 C 96.4636368731381 75.67140085084345 88.24030538585981 C 0.0 **** -0.24
21227 H 96.48029535730258 74.60189167726314 88.03163398896197 H 0.0 **** 0.06
21228 H 97.27097948178151 76.16078489643469 87.6939443936792 H 0.0 **** 0.06
21229 H 96.59635236730178 75.83492541675331 89.30892104171903 H 0.0 **** 0.06
21230 H 95.50727447614362 76.08857648425025 87.92397548877614 H 0.0 **** 0.06
21231 C 206.27612242893275 149.96049712007698 215.49579636409925 C 0.0 **** -0.24
21232 H 206.30192558306942 148.8775704351496 215.61233867364228 H 0.0 **** 0.06
21233 H 205.46778516605963 150.37232973204874 216.1000272024039 H 0.0 **** 0.06
21234 H 206.10967005158756 150.20959573277366 214.44802080835925 H 0.0 **** 0.06
21235 H 207.22601125932243 150.38356612638137 215.82298127551408 H 0.0 **** 0.06
21236 C 29.10771001441367 30.761318674505546 71.27621441646482 C 0.0 **** -0.24
21237 H 28.343889647009405 31.47213022712603 70.96012182257999 H 0.0 **** 0.06
21238 H 29.945313787450473 30.79465902340779 70.57902184013489 H 0.0 **** 0.06
21239 H 28.686042349725 29.756164506281905 71.28815670885547 H 0.0 **** 0.06
21240 H 29.45608594595116 31.021202008630382 72.27568477384705 H 0.0 **** 0.06
21241 C 174.92521449477843 160.6049890264122 147.23430082260637 C 0.0 **** -0.24
21242 H 174.4417500461131 161.36107880252612 146.61509203204423 H 0.0 **** 0.06
21243 H 174.79703399595172 160.86130125954995 148.28621334023296 H 0.0 **** 0.06
21244 H 175.9874326122177 160.56537727834154 146.99611456828256 H 0.0 **** 0.06
21245 H 174.47242533823433 159.6323234969819 147.03951144889697 H 0.0 **** 0.06
21246 C 50.29328118934012 128.22145186656724 49.91083127269977 C 0.0 **** -0.24
21247 H 50.91631772544294 129.03475715398406 49.537536301089304 H 0.0 **** 0.06
21248 H 49.69442941896787 128.57833513119726 50.74972343309943 H 0.0 **** 0.06
21249 H 50.928528875017065 127.39957350280197 50.24059249536957 H 0.0 **** 0.06
21250 H 49.63409139949158 127.87428769566831 49.11468052707846 H 0.0 **** 0.06
21251 C 72.77235855786198 35.93663451785696 119.58516293775803 C 0.0 **** -0.24
21252 H 73.43267533647635 35.39601065201276 118.90619110886202 H 0.0 **** 0.06
21253 H 73.35584477460183 36.34112950128872 120.41309095650682 H 0.0 **** 0.06
21254 H 72.01339399751741 35.257118724142686 119.9723117609232 H 0.0 **** 0.06
21255 H 72.28959653441633 36.75321924991681 119.048160756109 H 0.0 **** 0.06
21256 C 198.63520371895387 162.34127194355503 44.12942429539163 C 0.0 **** -0.24
21257 H 198.82709144457942 161.28804220900622 44.33380717141307 H 0.0 **** 0.06
21258 H 197.5594466175903 162.51332204947215 44.088198523888025 H 0.0 **** 0.06
21259 H 199.0844135872967 162.61342679145596 43.174349236396495 H 0.0 **** 0.06
21260 H 199.07131795653382 162.94941587640565 44.92167075854087 H 0.0 **** 0.06
21261 C 88.61467030463649 131.1839134105876 155.95298164885526 C 0.0 **** -0.24
21262 H 89.68101643973618 131.13889041920993 156.17798168202114 H 0.0 **** 0.06
21263 H 88.2365473958991 130.17437480966635 155.78838506617433 H 0.0 **** 0.06
21264 H 88.4583312447362 131.78222339208583 155.05615313816492 H 0.0 **** 0.06
21265 H 88.08636237181156 131.6378513678954 156.79033292853626 H 0.0 **** 0.06
21266 C 152.07497017280292 156.81291415472532 172.2726699481454 C 0.0 **** -0.24
21267 H 152.97737185291578 157.39467561476016 172.07899758309375 H 0.0 **** 0.06
21268 H 151.4754916458735 156.76099329975733 171.36391208491264 H 0.0 **** 0.06
21269 H 151.49698201113756 157.2910115427074 173.0626735471056 H 0.0 **** 0.06
21270 H 152.35267857617663 155.80613493289496 172.582935574683 H 0.0 **** 0.06
21271 C 21.172362965867933 38.28933893204311 87.91970371756554 C 0.0 **** -0.24
21272 H 21.756208391461968 38.84919770866574 88.65018903769442 H 0.0 **** 0.06
21273 H 20.822074456662477 38.96586340803313 87.13994879741705 H 0.0 **** 0.06
21274 H 20.315872596742196 37.83030673440891 88.41443985112852 H 0.0 **** 0.06
21275 H 21.794869502711492 37.51261116499063 87.47543271272485 H 0.0 **** 0.06
21276 C 79.24853711738892 41.86044749396703 53.78756756052654 C 0.0 **** -0.24
21277 H 79.47629066632682 41.90593025832348 54.85240593839653 H 0.0 **** 0.06
21278 H 78.52306879714386 41.06598772293455 53.60568692193556 H 0.0 **** 0.06
21279 H 80.16081896182355 41.65327880741971 53.2290381594711 H 0.0 **** 0.06
21280 H 78.83162601030189 42.8137469352814 53.46377529788924 H 0.0 **** 0.06
21281 C 88.1228417021128 129.2825612704595 212.12694443528872 C 0.0 **** -0.24
21282 H 88.85877939892418 129.04004129427733 211.3611645172881 H 0.0 **** 0.06
21283 H 87.58009285825722 128.3794691632026 212.4070434954763 H 0.0 **** 0.06
21284 H 87.42232859318426 130.02058726804597 211.73602225661662 H 0.0 **** 0.06
21285 H 88.62914696935724 129.68834577269854 213.00270127841566 H 0.0 **** 0.06
21286 C 133.50506038887727 168.959297822081 35.24728588144518 C 0.0 **** -0.24
21287 H 132.80221367118344 168.55427859638382 35.9743161624923 H 0.0 **** 0.06
21288 H 133.30846699643962 170.02193859815333 35.10419584132728 H 0.0 **** 0.06
21289 H 133.38770218227836 168.43654672739405 34.29811388504589 H 0.0 **** 0.06
21290 H 134.52347159965558 168.8243210522745 35.61189528577245 H 0.0 **** 0.06
21291 C 31.78438669969671 176.74266691475634 67.36069886921241 C 0.0 **** -0.24
21292 H 32.36804042913133 175.82263714517717 67.33201645426058 H 0.0 **** 0.06
21293 H 30.998473893429605 176.6514620227623 68.11063544654556 H 0.0 **** 0.06
21294 H 31.335357009621703 176.91798555053475 66.38269484937699 H 0.0 **** 0.06
21295 H 32.43558776552646 177.5785136477491 67.6160389249334 H 0.0 **** 0.06
21296 C 209.55295842527 40.381163387748956 155.41566589507642 C 0.0 **** -0.24
21297 H 208.51251634650097 40.5668805816786 155.14584638084466 H 0.0 **** 0.06
21298 H 209.64266694527558 39.3844493702513 155.84949387064125 H 0.0 **** 0.06
21299 H 209.8773192793762 41.1249942085073 156.14264516869576 H 0.0 **** 0.06
21300 H 210.17609369758628 40.44670987667131 154.5237313529148 H 0.0 **** 0.06
21301 C 209.95260575815968 132.86970269198946 216.47713910782923 C 0.0 **** -0.24
21302 H 210.592189998945 132.94950149863593 215.59794499308111 H 0.0 **** 0.06
21303 H 209.76509867073693 133.8646953831813 216.88199437804468 H 0.0 **** 0.06
21304 H 210.44702174457652 132.25759639812014 217.2315891443877 H 0.0 **** 0.06
21305 H 209.0061126183804 132.40701748802041 216.19702791580346 H 0.0 **** 0.06
21306 C 21.56821850837747 11.231802753507253 186.09267339351115 C 0.0 **** -0.24
21307 H 22.64753963052226 11.34927531251833 186.18779039717612 H 0.0 **** 0.06
21308 H 21.348065002554762 10.269658380428098 185.6285734033174 H 0.0 **** 0.06
21309 H 21.16915384616584 12.034673776339758 185.47283579228437 H 0.0 **** 0.06
21310 H 21.11042154535818 11.273259403689565 187.08074293285546 H 0.0 **** 0.06
21311 C 39.29114988129645 156.902676713122 58.02924965734249 C 0.0 **** -0.24
21312 H 39.04230700543452 157.78583652755293 58.61771129865947 H 0.0 **** 0.06
21313 H 39.49105708247396 157.19862713247568 56.998863508255795 H 0.0 **** 0.06
21314 H 38.454605556766126 156.20472739301607 58.05103186692649 H 0.0 **** 0.06
21315 H 40.175922306510984 156.42454384370848 58.4488171021118 H 0.0 **** 0.06
21316 C 161.4518238578113 68.18720297137014 162.89024862786096 C 0.0 **** -0.24
21317 H 160.38615744857418 68.07078395188219 163.08917540861768 H 0.0 **** 0.06
21318 H 161.65274688515757 69.21302421219605 162.57950777943807 H 0.0 **** 0.06
21319 H 161.75084842682452 67.5023734552062 162.09755262366747 H 0.0 **** 0.06
21320 H 162.01711938432214 67.96479271929842 163.79513910736569 H 0.0 **** 0.06
21321 C 163.62194954678714 102.60688333864557 153.1915804667899 C 0.0 **** -0.24
21322 H 163.0462035077866 103.53101220855781 153.14063474201868 H 0.0 **** 0.06
21323 H 164.39454103789728 102.61816301100733 152.42203754240137 H 0.0 **** 0.06
21324 H 162.95936886280842 101.75728161610202 153.0302799219296 H 0.0 **** 0.06
21325 H 164.0884593616834 102.52397291675429 154.1732645264628 H 0.0 **** 0.06
21326 C 4.143164487129127 117.37298964337892 108.62391631776421 C 0.0 **** -0.24
21327 H 4.039290547869626 118.27548448989636 108.02120958902759 H 0.0 **** 0.06
21328 H 5.117454552585741 116.92072057409324 108.43538325743037 H 0.0 **** 0.06
21329 H 3.3567487666839497 116.66628679868508 108.35845908066449 H 0.0 **** 0.06
21330 H 4.060070089135081 117.62943640930204 109.68019114882748 H 0.0 **** 0.06
21331 C 179.26125111719048 215.90613524666284 37.86675298075747 C 0.0 **** -0.24
21332 H 178.679044051421 215.41816651965723 38.64930496868266 H 0.0 **** 0.06
21333 H 179.24341132296678 215.29345988546368 36.9645463488352 H 0.0 **** 0.06
21334 H 180.29068467064855 216.0280354823348 38.20332396039103 H 0.0 **** 0.06
21335 H 178.83072390459552 216.88350886721585 37.65074314841959 H 0.0 **** 0.06
21336 C 73.63199731267737 14.760594412959094 165.38988292357104 C 0.0 **** -0.24
21337 H 74.43555915269671 15.475758414880858 165.21895917685865 H 0.0 **** 0.06
21338 H 73.57897312280032 14.52129185026267 166.45214553790856 H 0.0 **** 0.06
21339 H 73.82694518986547 13.851574213174658 164.82120750503938 H 0.0 **** 0.06
21340 H 72.684808802229 15.19406137247914 165.06728956547244 H 0.0 **** 0.06
21341 C 19.621311840274558 27.94125023993351 38.43832532136122 C 0.0 **** -0.24
21342 H 19.594538575797515 28.799917602535146 37.76636124932145 H 0.0 **** 0.06
21343 H 20.088169724850502 27.098003797044043 37.929070676602564 H 0.0 **** 0.06
21344 H 18.605243195560092 27.67503255270242 38.726947501594694 H 0.0 **** 0.06
21345 H 20.197688095429953 28.19402779859243 39.32777180095091 H 0.0 **** 0.06
21346 C 20.401445003556887 203.51271257954252 204.9354322035177 C 0.0 **** -0.24
21347 H 21.06389675836914 204.2475499857893 205.39168956169112 H 0.0 **** 0.06
21348 H 20.595963703200653 202.53087397998206 205.36707624385335 H 0.0 **** 0.06
21349 H 20.581972289542705 203.47956555152007 203.86085306943474 H 0.0 **** 0.06
21350 H 19.36475258379619 203.79337257538083 205.1218106692997 H 0.0 **** 0.06
21351 C 157.21766459184988 48.59929771269023 112.60408722432068 C 0.0 **** -0.24
21352 H 157.81423696558886 49.29465487960016 112.01362558344452 H 0.0 **** 0.06
21353 H 156.20776579847802 48.994678516543104 112.72042987254567 H 0.0 **** 0.06
21354 H 157.67384999178483 48.472651089614374 113.58582529931637 H 0.0 **** 0.06
21355 H 157.17469467741626 47.636454125447926 112.0958117721198 H 0.0 **** 0.06
21356 C 118.0925879054817 130.05993520129624 137.60250038983543 C 0.0 **** -0.24
21357 H 118.5738848605419 129.51022168885896 138.41129111046683 H 0.0 **** 0.06
21358 H 118.29243320486064 131.12500236503217 137.71842676152062 H 0.0 **** 0.06
21359 H 117.01651759992545 129.8865733572381 137.6343989851518 H 0.0 **** 0.06
21360 H 118.48751595659881 129.71794339405574 136.6458847022024 H 0.0 **** 0.06
21361 C 112.77069714023729 178.25620649237766 145.14640687911685 C 0.0 **** -0.24
21362 H 113.26644009838166 178.95383451532717 145.82189648553486 H 0.0 **** 0.06
21363 H 111.76292503418027 178.61365021741608 144.931997170018 H 0.0 **** 0.06
21364 H 112.71632509378271 177.27410692702614 145.61440819729944 H 0.0 **** 0.06
21365 H 113.33732119059108 178.18620296511435 144.21769657199417 H 0.0 **** 0.06
21366 C 86.17382925005603 146.72897098433452 126.07099967897379 C 0.0 **** -0.24
21367 H 85.6003904458658 147.13161750658116 126.90569114606636 H 0.0 **** 0.06
21368 H 87.22591462915153 146.98556830356642 126.1963643999846 H 0.0 **** 0.06
21369 H 85.80501075965361 147.15529273161212 125.13774524613079 H 0.0 **** 0.06
21370 H 86.06388124877145 145.6453962469992 126.04404893250184 H 0.0 **** 0.06
21371 C 104.27462537760461 83.88783607535238 63.80538391461626 C 0.0 **** -0.24
21372 H 104.4979171484584 82.87618980250996 63.46674880424197 H 0.0 **** 0.06
21373 H 105.00291378241825 84.18819432242064 64.55826574361498 H 0.0 **** 0.06
21374 H 103.27360355979629 83.91437031982467 64.23685280637976 H 0.0 **** 0.06
21375 H 104.32341831208491 84.57329100485838 62.95862542194136 H 0.0 **** 0.06
21376 C 111.01745219559746 77.80827007141454 5.743632712795161 C 0.0 **** -0.24
21377 H 110.6408788044211 77.0908549854422 6.473094309230689 H 0.0 **** 0.06
21378 H 111.31483913071202 78.72350376793986 6.255778622687046 H 0.0 **** 0.06
21379 H 110.23511538371014 78.0336624637759 5.019974304213655 H 0.0 **** 0.06
21380 H 111.87834269162039 77.38329880354104 5.228029082913707 H 0.0 **** 0.06
21381 C 140.12916086712966 211.76430508693758 178.4161471365952 C 0.0 **** -0.24
21382 H 140.63921284780002 211.15425404331336 177.6710680623171 H 0.0 **** 0.06
21383 H 139.40444471049318 212.41120332745965 177.92054314557362 H 0.0 **** 0.06
21384 H 140.85805315010566 212.374632650505 178.94743934143966 H 0.0 **** 0.06
21385 H 139.61225517494978 211.114844630838 179.12427057036234 H 0.0 **** 0.06
21386 C 18.08146253619296 84.23501492120151 37.780968593755674 C 0.0 **** -0.24
21387 H 17.26219897171336 84.93930263905627 37.64138659191835 H 0.0 **** 0.06
21388 H 18.180243359291026 83.997510857654 38.84031712480571 H 0.0 **** 0.06
21389 H 19.008543971712015 84.68151373949668 37.42106032980665 H 0.0 **** 0.06
21390 H 17.875795029270876 83.3227700088873 37.22087285656572 H 0.0 **** 0.06
21391 C 170.54884917644503 46.76460153593632 132.3646898637934 C 0.0 **** -0.24
21392 H 171.2060265906312 47.16918096507226 131.5949123187641 H 0.0 **** 0.06
21393 H 169.73072042921117 46.21979735071881 131.89361143223545 H 0.0 **** 0.06
21394 H 170.1445479205592 47.5822812135053 132.96242023531084 H 0.0 **** 0.06
21395 H 171.11385815906695 46.08959170960145 133.00609433022896 H 0.0 **** 0.06
21396 C 114.22411276217116 198.74999480541717 178.96663308291767 C 0.0 **** -0.24
21397 H 113.74095892486218 199.72417862088724 179.04245789311665 H 0.0 **** 0.06
21398 H 115.23287432555844 198.87515876603175 178.57210014164582 H 0.0 **** 0.06
21399 H 113.64885350693731 198.10883763958603 178.29929853283943 H 0.0 **** 0.06
21400 H 114.27473160470902 198.2920223318832 179.95532469909676 H 0.0 **** 0.06
21401 C 55.608664900837255 18.907957758570035 175.91550559991964 C 0.0 **** -0.24
21402 H 56.16208927592798 18.484965905336765 176.7536681636767 H 0.0 **** 0.06
21403 H 55.68162911372545 18.23863925696091 175.0574105412402 H 0.0 **** 0.06
21404 H 56.02765737527592 19.879470306608823 175.65624745314963 H 0.0 **** 0.06
21405 H 54.56220010111093 19.026438521446664 176.195903286134 H 0.0 **** 0.06
21406 C 21.025345163579388 163.0085120008881 47.742700852245676 C 0.0 **** -0.24
21407 H 21.76063690361231 163.76631038009828 47.471126148521435 H 0.0 **** 0.06
21408 H 21.5229213801899 162.04575232207014 47.85903590631344 H 0.0 **** 0.06
21409 H 20.271617746366474 162.93598539754132 46.95821183343759 H 0.0 **** 0.06
21410 H 20.547472401373682 163.28749157072446 48.6813488933155 H 0.0 **** 0.06
21411 C 156.593803548195 59.99353200168815 197.98266975475906 C 0.0 **** -0.24
21412 H 157.0616488553669 60.51252139355273 197.14627157740972 H 0.0 **** 0.06
21413 H 156.33060215208985 58.9796375387312 197.6789886669923 H 0.0 **** 0.06
21414 H 155.69183952290763 60.52882263906838 198.28306283842713 H 0.0 **** 0.06
21415 H 157.28891527686233 59.95420316919257 198.82093943257783 H 0.0 **** 0.06
21416 C 189.0935815413068 132.56342230452918 89.72667587535064 C 0.0 **** -0.24
21417 H 188.723690462972 131.54107697296826 89.64867106958384 H 0.0 **** 0.06
21418 H 188.25594939264772 133.25822397416988 89.6636428343693 H 0.0 **** 0.06
21419 H 189.79107665039817 132.7604575648037 88.91211597700332 H 0.0 **** 0.06
21420 H 189.60252310671163 132.6932385685629 90.68169019684909 H 0.0 **** 0.06
21421 C 206.94120267903625 160.2432761210925 78.25155475975441 C 0.0 **** -0.24
21422 H 207.24895743295326 160.54698811420053 77.25088889321484 H 0.0 **** 0.06
21423 H 206.6437186913607 161.12304493989154 78.82213975643572 H 0.0 **** 0.06
21424 H 207.7733759042986 159.74934592570685 78.75253161647095 H 0.0 **** 0.06
21425 H 206.09919430505659 159.55431677643548 78.17945019155724 H 0.0 **** 0.06
21426 C 36.492235546333575 176.67993068415302 203.1809176871634 C 0.0 **** -0.24
21427 H 36.43195922541457 176.68571632866784 202.09292760631502 H 0.0 **** 0.06
21428 H 37.29804139947916 177.3407190662771 203.50310056371669 H 0.0 **** 0.06
21429 H 36.692570841144715 175.66612192519526 203.5283507251583 H 0.0 **** 0.06
21430 H 35.54763084465088 177.02751623464212 203.59875422478274 H 0.0 **** 0.06
21431 C 94.63104709812957 28.409246229642235 201.8051656077356 C 0.0 **** -0.24
21432 H 94.21376093276778 28.81387822214117 200.8819834059458 H 0.0 **** 0.06
21433 H 93.85857259565735 27.85694723513012 202.3401301837277 H 0.0 **** 0.06
21434 H 94.99135784206813 29.227292271583963 202.42903336612505 H 0.0 **** 0.06
21435 H 95.45806793630813 27.74108164592468 201.56772774933881 H 0.0 **** 0.06
21436 C 60.91779526184848 31.806030089451895 213.7415428178162 C 0.0 **** -0.24
21437 H 61.40309455526784 31.557127825531722 212.79771105389034 H 0.0 **** 0.06
21438 H 59.88503171018078 31.45598172328556 213.72268153814633 H 0.0 **** 0.06
21439 H 60.93394865546816 32.88580060152472 213.8846505432989 H 0.0 **** 0.06
21440 H 61.44960385340352 31.32242910858281 214.56099437307364 H 0.0 **** 0.06
21441 C 201.40683933313514 41.33042976761163 28.711586195105085 C 0.0 **** -0.24
21442 H 200.83376278142038 41.52285802496313 27.80447166446831 H 0.0 **** 0.06
21443 H 201.91107026519114 40.36750328236721 28.625872135300966 H 0.0 **** 0.06
21444 H 200.73401240791117 41.31268195688466 29.569151403182815 H 0.0 **** 0.06
21445 H 202.14689257535287 42.11830812957676 28.84796436020561 H 0.0 **** 0.06
21446 C 84.69097864573696 158.47999853648054 125.09715681241231 C 0.0 **** -0.24
21447 H 84.64369137476253 157.4328151964155 125.39830482745786 H 0.0 **** 0.06
21448 H 83.91775419093067 158.67846333832213 124.35470020868247 H 0.0 **** 0.06
21449 H 85.6705086361414 158.69063250222166 124.66793255093599 H 0.0 **** 0.06
21450 H 84.53118400322414 159.11518647066325 125.96760673806217 H 0.0 **** 0.06
21451 C 104.19670231104116 141.50296642019288 66.11442406456683 C 0.0 **** -0.24
21452 H 104.6180753336023 140.94780426856954 65.27691413486944 H 0.0 **** 0.06
21453 H 103.77582084417891 142.4417824098404 65.7528767173793 H 0.0 **** 0.06
21454 H 104.9810666084558 141.71327103901086 66.84113841275769 H 0.0 **** 0.06
21455 H 103.41319608662657 140.91053428104163 66.58584561308669 H 0.0 **** 0.06
21456 C 214.7001636012684 68.89557739142009 185.56659333908328 C 0.0 **** -0.24
21457 H 215.02457593169243 69.93469674134548 185.61674055624678 H 0.0 **** 0.06
21458 H 215.31947638859822 68.35629540107385 184.84970300825597 H 0.0 **** 0.06
21459 H 213.65782104266208 68.85667496286248 185.2496537013157 H 0.0 **** 0.06
21460 H 214.797847233217 68.43743733586967 186.54971321879447 H 0.0 **** 0.06
21461 C 161.28505020949586 38.481623967539406 89.89162263060142 C 0.0 **** -0.24
21462 H 160.80689309543902 39.458451901967464 89.96124367769447 H 0.0 **** 0.06
21463 H 161.65580946449302 38.18786736497668 90.87387044953688 H 0.0 **** 0.06
21464 H 162.1176566027701 38.53324379649942 89.18964034198076 H 0.0 **** 0.06
21465 H 160.55984167528123 37.74693280671423 89.54173605319356 H 0.0 **** 0.06
21466 C 45.76075867104227 12.71546842628186 200.09772076917622 C 0.0 **** -0.24
21467 H 46.11179588568908 13.041693339649385 199.1190945361875 H 0.0 **** 0.06
21468 H 46.48701434339759 12.028027609382661 200.53299537416183 H 0.0 **** 0.06
21469 H 44.801008340757875 12.208969120479878 199.98791675830748 H 0.0 **** 0.06
21470 H 45.642654257216876 13.580496836299233 200.7496657972249 H 0.0 **** 0.06
21471 C 175.48805352770253 79.09751370060093 175.31809691792301 C 0.0 **** -0.24
21472 H 174.85005276731607 78.58448006237711 176.03734488863125 H 0.0 **** 0.06
21473 H 175.05796883514188 79.00544519588561 174.320615745331 H 0.0 **** 0.06
21474 H 176.48166070525147 78.64898412867643 175.32863940320954 H 0.0 **** 0.06
21475 H 175.56244701347853 80.15214046574118 175.58583962120696 H 0.0 **** 0.06
21476 C 1.3017898566831718 59.59054063696675 56.618573805487586 C 0.0 **** -0.24
21477 H 1.6689337360655259 60.04256640223895 55.697298487200555 H 0.0 **** 0.06
21478 H 2.1466036627132326 59.253441079067386 57.2190058614633 H 0.0 **** 0.06
21479 H 0.6652248201500299 58.73878509234305 56.37598648578563 H 0.0 **** 0.06
21480 H 0.7255144219857925 60.32616931512496 57.18033729671561 H 0.0 **** 0.06
21481 C 156.598736359035 147.95256370857834 149.87766160769525 C 0.0 **** -0.24
21482 H 157.52085914468933 148.24445454438745 149.3742100612858 H 0.0 **** 0.06
21483 H 155.8770831292627 147.60382250715094 149.13949813443094 H 0.0 **** 0.06
21484 H 156.18934670948568 148.8101124156127 150.41111868888908 H 0.0 **** 0.06
21485 H 156.8107071053209 147.15104087942933 150.58593747864575 H 0.0 **** 0.06
21486 C 197.344485911528 83.04223652805081 65.62639048423682 C 0.0 **** -0.24
21487 H 196.7018397832374 82.3571910602256 65.07305170589837 H 0.0 **** 0.06
21488 H 197.20832136118997 82.88476524542716 66.69571790133188 H 0.0 **** 0.06
21489 H 197.0810846364713 84.07056917242829 65.37390301966519 H 0.0 **** 0.06
21490 H 198.38520835779252 82.85886588039887 65.36048049798518 H 0.0 **** 0.06
21491 C 4.630575548074411 130.5914906126693 43.52237040571853 C 0.0 **** -0.24
21492 H 4.186253133438903 131.24985210201783 44.26925921141198 H 0.0 **** 0.06
21493 H 3.8640121627604174 129.9278616389372 43.12050435565878 H 0.0 **** 0.06
21494 H 5.418554566217395 129.99792353880287 43.983930045843735 H 0.0 **** 0.06
21495 H 5.0523019973320515 131.1907513634609 42.715135929527875 H 0.0 **** 0.06
21496 C 164.91561448432208 80.62940106489235 68.30739937358182 C 0.0 **** -0.24
21497 H 164.7145177692837 80.51922808241663 69.37317569523881 H 0.0 **** 0.06
21498 H 165.87219981087563 81.1353604247604 68.16975560169146 H 0.0 **** 0.06
21499 H 164.12274975929017 81.21930615931622 67.84715308092017 H 0.0 **** 0.06
21500 H 164.95502763963967 79.6448123866321 67.84208887082488 H 0.0 **** 0.06
21501 C 111.73780488648701 7.936988775305835 75.25824545889152 C 0.0 **** -0.24
21502 H 112.38776457938427 7.518206110216937 74.49128354391478 H 0.0 **** 0.06
21503 H 112.27147811896045 8.71645536891404 75.80166319862703 H 0.0 **** 0.06
21504 H 111.4401457173356 7.150107972628305 75.952202070893 H 0.0 **** 0.06
21505 H 110.85084243085883 8.362404189950325 74.7896801494284 H 0.0 **** 0.06
21506 C 2.746922228330078 26.27679089593221 171.608617429222 C 0.0 **** -0.24
21507 H 3.677978179019874 26.841094367930225 171.5477769810322 H 0.0 **** 0.06
21508 H 1.9077399975210199 26.96745135167265 171.68431046592718 H 0.0 **** 0.06
21509 H 2.7700358979004704 25.63363028008669 172.48855908847256 H 0.0 **** 0.06
21510 H 2.634725437347612 25.66393778453113 170.7134905649813 H 0.0 **** 0.06
21511 C 14.88845513260432 131.7802052531918 151.08840759277808 C 0.0 **** -0.24
21512 H 15.58933711843531 132.60321079096167 151.22291573027974 H 0.0 **** 0.06
21513 H 15.2753112953298 131.09407786090543 150.33406239946663 H 0.0 **** 0.06
21514 H 13.92572420514739 132.17285207257777 150.76254296125046 H 0.0 **** 0.06
21515 H 14.764910771372598 131.25001289187549 152.03255534712645 H 0.0 **** 0.06
21516 C 65.14669390144292 153.1351977329851 116.15197176749437 C 0.0 **** -0.24
21517 H 64.30459304554563 153.57153322376195 115.61366456440821 H 0.0 **** 0.06
21518 H 64.89774720860731 153.05540472166075 117.2107601210778 H 0.0 **** 0.06
21519 H 66.0237088198474 153.77058225653286 116.03105664686309 H 0.0 **** 0.06
21520 H 65.35841177202576 152.1434909048242 115.75163534029356 H 0.0 **** 0.06
21521 C 159.9424563911789 93.37493746058225 93.5806447896381 C 0.0 **** -0.24
21522 H 160.81880930005664 92.8172071647749 93.24918340904118 H 0.0 **** 0.06
21523 H 159.1531738631354 93.28741728536612 92.8337321753779 H 0.0 **** 0.06
21524 H 160.20760385316953 94.42444300829739 93.70837131382233 H 0.0 **** 0.06
21525 H 159.59181834412198 92.97025033920131 94.52976987157543 H 0.0 **** 0.06
21526 C 153.18087094289513 214.99073831266836 202.70939367016194 C 0.0 **** -0.24
21527 H 152.13865743939317 214.92027095151957 202.39873067955105 H 0.0 **** 0.06
21528 H 153.23617208789443 215.46596036570566 203.68913850023375 H 0.0 **** 0.06
21529 H 153.73576223942672 215.58641680802157 201.98495464133373 H 0.0 **** 0.06
21530 H 153.61197022360187 213.99068581658648 202.76482441556777 H 0.0 **** 0.06
21531 C 99.63521213410314 162.08628503050588 103.65509893381069 C 0.0 **** -0.24
21532 H 100.50625659855837 162.59627241522853 104.06678758832773 H 0.0 **** 0.06
21533 H 99.73136586546588 162.0203683108494 102.57114340415875 H 0.0 **** 0.06
21534 H 98.73500589489635 162.64715057355778 103.90774041391715 H 0.0 **** 0.06
21535 H 99.56888300903103 161.08436088601235 104.07746082572457 H 0.0 **** 0.06
21536 C 89.0829371819487 96.78098642636 176.2329603980233 C 0.0 **** -0.24
21537 H 89.58560646084544 95.96177100764886 176.74711293487343 H 0.0 **** 0.06
21538 H 88.40984630783475 96.37592497157054 175.47704040415869 H 0.0 **** 0.06
21539 H 89.82505057004005 97.42001788015976 175.75560032672337 H 0.0 **** 0.06
21540 H 88.51071471615478 97.36496915678894 176.95456262584366 H 0.0 **** 0.06
21541 C 193.75109606576626 31.838909884610757 58.111748577463516 C 0.0 **** -0.24
21542 H 194.6890580372755 32.15750235699994 58.56620133418612 H 0.0 **** 0.06
21543 H 193.37450708916057 32.63078198981921 57.46271507860989 H 0.0 **** 0.06
21544 H 193.0201215709103 31.631720851589648 58.89377360339833 H 0.0 **** 0.06
21545 H 193.9204489221223 30.936602929837363 57.52429908751897 H 0.0 **** 0.06
21546 C 142.14225142976738 88.29895086153664 191.8118032306997 C 0.0 **** -0.24
21547 H 142.34648320244628 88.2666802790634 190.7413766161961 H 0.0 **** 0.06
21548 H 142.26510570957106 89.32038562543346 192.17439806810788 H 0.0 **** 0.06
21549 H 142.83795670093292 87.64196500230668 192.33382420132955 H 0.0 **** 0.06
21550 H 141.1200952391656 87.96762458966816 191.99668095080546 H 0.0 **** 0.06
21551 C 197.0067715183469 125.1320822822202 75.68213573194312 C 0.0 **** -0.24
21552 H 197.98687088133363 125.60913269704155 75.69467689993532 H 0.0 **** 0.06
21553 H 196.3121865041973 125.74506283806353 75.10690999410248 H 0.0 **** 0.06
21554 H 196.6401580916737 125.02855451783388 76.70323990318671 H 0.0 **** 0.06
21555 H 197.08751263287166 124.14669988626186 75.22293147750871 H 0.0 **** 0.06
21556 C 153.53501788293806 77.4231597122678 51.60462959522032 C 0.0 **** -0.24
21557 H 154.45966169439515 77.82642950317496 52.018718294174874 H 0.0 **** 0.06
21558 H 153.59101950467965 77.43281642985495 50.51515644820854 H 0.0 **** 0.06
21559 H 152.6942996105792 78.03423007941903 51.93075059053356 H 0.0 **** 0.06
21560 H 153.3980780239737 76.39910257636585 51.95285740048767 H 0.0 **** 0.06
21561 C 91.9131317754766 57.858586096098804 158.13817666249008 C 0.0 **** -0.24
21562 H 92.29180009712725 58.75580097540626 158.62850707267125 H 0.0 **** 0.06
21563 H 91.84635301997098 58.03224921903234 157.0644132595677 H 0.0 **** 0.06
21564 H 90.92434740792056 57.6215734127627 158.5303814459316 H 0.0 **** 0.06
21565 H 92.59055760260553 57.02700548228478 158.3312752425751 H 0.0 **** 0.06
21566 C 21.904343618121203 175.8253108535326 165.87160382045712 C 0.0 **** -0.24
21567 H 22.686923128881915 176.20293289425516 166.52915384020605 H 0.0 **** 0.06
21568 H 20.95684671595984 175.80206146719726 166.40992549262776 H 0.0 **** 0.06
21569 H 22.160836440107914 174.81829437193448 165.54334269475677 H 0.0 **** 0.06
21570 H 21.81319358536919 176.47759827545977 165.00269246760888 H 0.0 **** 0.06
21571 C 72.07693724185975 126.06369841146612 193.30957479994058 C 0.0 **** -0.24
21572 H 71.9199240636521 126.59308010258208 194.2492066526459 H 0.0 **** 0.06
21573 H 71.22630026439685 125.41066006387088 193.1134656656286 H 0.0 **** 0.06
21574 H 72.98593616199247 125.46509044772871 193.37773362300783 H 0.0 **** 0.06
21575 H 72.176908881131 126.78390035991576 192.49793821241582 H 0.0 **** 0.06
21576 C 149.77204664028687 28.184173309095442 35.759094832627795 C 0.0 **** -0.24
21577 H 149.14820722970052 27.599265709552938 36.435408839926595 H 0.0 **** 0.06
21578 H 149.40905166062163 28.066449146867015 34.738447591809376 H 0.0 **** 0.06
21579 H 150.80187657701174 27.832682012483673 35.822128997388845 H 0.0 **** 0.06
21580 H 149.7289039910022 29.235495806031352 36.04287088617224 H 0.0 **** 0.06
21581 C 71.35743646856281 125.41213875834914 114.33301746203506 C 0.0 **** -0.24
21582 H 71.76152165311561 124.88848604572335 115.19914339371837 H 0.0 **** 0.06
21583 H 70.64833322939205 124.76403384542549 113.81581267367466 H 0.0 **** 0.06
21584 H 72.17026081554724 125.67536473527944 113.65618749658512 H 0.0 **** 0.06
21585 H 70.84917320405447 126.31872347874925 114.66095301927061 H 0.0 **** 0.06
21586 C 177.1217732903633 199.3978283000434 153.6333774617624 C 0.0 **** -0.24
21587 H 177.5377501834335 200.13624229327328 152.94827883524079 H 0.0 **** 0.06
21588 H 177.92464755981817 198.76825350752614 154.0187482547895 H 0.0 **** 0.06
21589 H 176.39743176450793 198.77906212614212 153.1035964556454 H 0.0 **** 0.06
21590 H 176.62859574983662 199.90764636174532 154.46083355690683 H 0.0 **** 0.06
21591 C 161.18430052140454 98.61466451771412 84.32121828497863 C 0.0 **** -0.24
21592 H 160.76595681163423 99.38454503689775 83.67238650890944 H 0.0 **** 0.06
21593 H 162.19089244174785 98.36425703989784 83.98488221238647 H 0.0 **** 0.06
21594 H 160.55545551795217 97.72513335352323 84.27977661798091 H 0.0 **** 0.06
21595 H 161.22363515026768 98.98476049796096 85.34572884601563 H 0.0 **** 0.06
21596 C 212.44147790289745 131.868804044176 201.42521335969911 C 0.0 **** -0.24
21597 H 212.4491057438289 130.80640315134474 201.6678494813736 H 0.0 **** 0.06
21598 H 213.1134341639736 132.05520758933812 200.58671907870686 H 0.0 **** 0.06
21599 H 212.77398409894184 132.441418000184 202.2909194415227 H 0.0 **** 0.06
21600 H 211.4297202380165 132.17290995550906 201.155971520889 H 0.0 **** 0.06
21601 C 114.36451601639396 109.5834984852529 85.18587003732274 C 0.0 **** -0.24
21602 H 114.02016995528146 108.92724090783571 85.9852660105331 H 0.0 **** 0.06
21603 H 113.53926322207519 110.21187866591498 84.85142377131696 H 0.0 **** 0.06
21604 H 114.72517210813328 108.98172296427077 84.35226070094454 H 0.0 **** 0.06
21605 H 115.17371494188421 110.2129833277923 85.55650607729793 H 0.0 **** 0.06
21606 C 94.38164291042789 34.204426978799574 167.2287918537159 C 0.0 **** -0.24
21607 H 95.04773543261966 34.39595099513457 166.3868426515827 H 0.0 **** 0.06
21608 H 93.98949310217215 35.14889037399638 167.6038418927218 H 0.0 **** 0.06
21609 H 94.93612660422043 33.700132772955556 168.02079648738635 H 0.0 **** 0.06
21610 H 93.55705449706345 33.57170585044355 166.9025848104887 H 0.0 **** 0.06
21611 C 154.98526280347164 215.9853366878993 122.6892116130365 C 0.0 **** -0.24
21612 H 154.3899833942706 215.57390474590534 123.5050218464941 H 0.0 **** 0.06
21613 H 154.39799483376203 215.97775007460686 121.77112234336839 H 0.0 **** 0.06
21614 H 155.88115208517274 215.37953939606456 122.55305665154206 H 0.0 **** 0.06
21615 H 155.2723108652388 217.00908333665103 122.9295704035187 H 0.0 **** 0.06
21616 C 136.422157354207 8.864439399785724 93.1870798147484 C 0.0 **** -0.24
21617 H 137.00086987901312 8.089468950790092 93.68827810832944 H 0.0 **** 0.06
21618 H 135.894124917532 9.462567108618828 93.93076264529567 H 0.0 **** 0.06
21619 H 135.6995553392428 8.399800409564207 92.51459478867834 H 0.0 **** 0.06
21620 H 137.09215243287423 9.505475817098826 92.61364014725847 H 0.0 **** 0.06
21621 C 97.20804957428415 83.76121705352581 122.36364598731363 C 0.0 **** -0.24
21622 H 96.62685868022938 83.18078492087999 121.64858949659488 H 0.0 **** 0.06
21623 H 98.21298180202733 83.91974660856876 121.97191554330406 H 0.0 **** 0.06
21624 H 97.26764029872886 83.21982243546371 123.30821465223345 H 0.0 **** 0.06
21625 H 96.72521942693804 84.72427410852625 122.52716443092636 H 0.0 **** 0.06
21626 C 190.42281041651813 46.57045066603189 92.66054723346657 C 0.0 **** -0.24
21627 H 190.860665090604 47.531819352467465 92.92841224224809 H 0.0 **** 0.06
21628 H 189.40018783349072 46.7202828966677 92.31502374168538 H 0.0 **** 0.06
21629 H 190.41977556892527 45.91809160566589 93.53425862582479 H 0.0 **** 0.06
21630 H 191.01223593237606 46.11148131476983 91.86738406176967 H 0.0 **** 0.06
21631 C 57.08677349623467 131.02036359059275 94.67012245955986 C 0.0 **** -0.24
21632 H 57.57560665105123 131.62290715401355 95.43569906445326 H 0.0 **** 0.06
21633 H 57.69822422938624 130.14374803315798 94.45334071976693 H 0.0 **** 0.06
21634 H 56.966320139970975 131.6133974277834 93.76405790476896 H 0.0 **** 0.06
21635 H 56.10887797196753 130.7015548950019 95.02888626896687 H 0.0 **** 0.06
21636 C 48.74552091516881 121.40368105282401 63.729544906312924 C 0.0 **** -0.24
21637 H 49.708525493410946 121.4586207295746 64.23712046681715 H 0.0 **** 0.06
21638 H 48.092820142562914 122.19317498508092 64.10262154167711 H 0.0 **** 0.06
21639 H 48.28852983470688 120.4324421736775 63.92355613590922 H 0.0 **** 0.06
21640 H 48.8921622403887 121.52860890392795 62.65742575989924 H 0.0 **** 0.06
21641 C 94.70876487917086 27.241209018174104 116.16172300393951 C 0.0 **** -0.24
21642 H 93.66651389027659 27.31246713299764 115.84977059786591 H 0.0 **** 0.06
21643 H 94.75468043814955 27.094791926555416 117.2413131806429 H 0.0 **** 0.06
21644 H 95.23076833943641 28.16100934809066 115.89671566785812 H 0.0 **** 0.06
21645 H 95.18147688676773 26.397334058721455 115.65998050603643 H 0.0 **** 0.06
21646 C 85.14752572480371 91.08114459449983 210.75531383134614 C 0.0 **** -0.24
21647 H 86.00810395232664 91.72206390299483 210.94684369895728 H 0.0 **** 0.06
21648 H 85.4134354217589 90.04442277971039 210.95864613851379 H 0.0 **** 0.06
21649 H 84.84627686645028 91.18130277968127 209.71182227589765 H 0.0 **** 0.06
21650 H 84.32205816503567 91.37917599793973 211.40214049707467 H 0.0 **** 0.06
21651 C 118.7839405150193 59.17911767391627 113.06336057742449 C 0.0 **** -0.24
21652 H 119.60795360186772 59.06984366319682 113.76889283771565 H 0.0 **** 0.06
21653 H 117.91251331194512 59.57845424980616 113.58175334049936 H 0.0 **** 0.06
21654 H 118.53895056317971 58.205381698420126 112.63876510371342 H 0.0 **** 0.06
21655 H 119.07671663156744 59.85991354291491 112.26479358162173 H 0.0 **** 0.06
21656 C 181.98320389575343 20.326641904653187 18.792017582238543 C 0.0 **** -0.24
21657 H 181.00225363220358 19.96930499956055 19.105603386326067 H 0.0 **** 0.06
21658 H 182.24652899819182 19.872898333644784 17.836058474617857 H 0.0 **** 0.06
21659 H 182.7258535440556 20.053757019243534 19.541824542457533 H 0.0 **** 0.06
21660 H 181.95722215455083 21.411557286524868 18.685009554462056 H 0.0 **** 0.06
21661 C 50.86649505442085 28.747634158822805 55.06154857153291 C 0.0 **** -0.24
21662 H 49.79335300136097 28.895106383975033 55.18316359776054 H 0.0 **** 0.06
21663 H 51.0472394412875 28.075793713149892 54.22163188370615 H 0.0 **** 0.06
21664 H 51.27819501146968 28.310984300546508 55.97182720720406 H 0.0 **** 0.06
21665 H 51.34568952045669 29.706718876862737 54.86952181761916 H 0.0 **** 0.06
21666 C 0.3343220166270555 150.02374572853273 59.8721891246594 C 0.0 **** -0.24
21667 H 1.0836429229285045 150.72466068044037 60.23773873443923 H 0.0 **** 0.06
21668 H -0.6232857146491142 150.23383822140994 60.35016479316593 H 0.0 **** 0.06
21669 H 0.6431418223429262 149.0055418734205 60.10770422984815 H 0.0 **** 0.06
21670 H 0.23178141947880704 150.13179458331706 58.79265589277588 H 0.0 **** 0.06
21671 C 209.9380652615202 63.22850650357317 59.99782154209748 C 0.0 **** -0.24
21672 H 209.32982915122864 64.0795146011468 60.302152227867566 H 0.0 **** 0.06
21673 H 210.87121916051035 63.586712810528525 59.56227798433855 H 0.0 **** 0.06
21674 H 209.39485982427288 62.638666854534435 59.26024703106316 H 0.0 **** 0.06
21675 H 210.15682777508965 62.609329045488266 60.86792635096043 H 0.0 **** 0.06
21676 C 57.154443212454055 116.19452353472447 136.60984882503726 C 0.0 **** -0.24
21677 H 58.10531776257284 115.93124763883937 136.14546369751838 H 0.0 **** 0.06
21678 H 56.49037703125197 115.33085621017015 136.59252886739245 H 0.0 **** 0.06
21679 H 56.6971355422196 117.01610943339004 136.0586569892219 H 0.0 **** 0.06
21680 H 57.32633092404802 116.50114530436754 137.64153183776824 H 0.0 **** 0.06
21681 C 88.74916835210432 216.1962372425603 185.42549758319333 C 0.0 **** -0.24
21682 H 89.78683048054212 215.8808604171622 185.32068400381317 H 0.0 **** 0.06
21683 H 88.30923120122289 215.71309057290412 186.29831242440423 H 0.0 **** 0.06
21684 H 88.19144999234412 215.91405336238302 184.53294864202957 H 0.0 **** 0.06
21685 H 88.70902630192889 217.27886221814606 185.55118743225836 H 0.0 **** 0.06
21686 C 211.4776236404416 89.99875968895917 135.59516153164827 C 0.0 **** -0.24
21687 H 212.04883150124564 89.07266805073043 135.52562733035836 H 0.0 **** 0.06
21688 H 210.49210511504367 89.78674437478732 136.01002763396485 H 0.0 **** 0.06
21689 H 211.36759784457817 90.43187168177441 134.60075443696724 H 0.0 **** 0.06
21690 H 212.00204303901052 90.70085856683896 136.24186901136085 H 0.0 **** 0.06
21691 C 213.69020729478942 216.0777784252959 122.36848544814875 C 0.0 **** -0.24
21692 H 213.80009669355846 216.50246061002582 121.37057938988268 H 0.0 **** 0.06
21693 H 213.02509017233652 216.70706372429618 122.95951366713614 H 0.0 **** 0.06
21694 H 214.66593076759756 216.02529553607445 122.85083529689838 H 0.0 **** 0.06
21695 H 213.2693124164344 215.07487078032966 122.29040273459817 H 0.0 **** 0.06
21696 C 177.69549638854193 10.04500301182523 156.11396182461237 C 0.0 **** -0.24
21697 H 177.48066472030987 10.582045655426441 155.1908547527787 H 0.0 **** 0.06
21698 H 176.7709113169219 9.897802007102001 156.6722390387676 H 0.0 **** 0.06
21699 H 178.39642478771339 10.623620765725349 156.71610052988586 H 0.0 **** 0.06
21700 H 178.13433564519227 9.075929977722012 155.8759456445248 H 0.0 **** 0.06
21701 C 71.2241375841934 134.77299902843976 46.869983767142 C 0.0 **** -0.24
21702 H 71.39773033500622 135.4039676145445 45.99906166147434 H 0.0 **** 0.06
21703 H 72.02371992436001 134.92718348011613 47.594779861527684 H 0.0 **** 0.06
21704 H 71.20778844030768 133.72750091968027 46.56449968869032 H 0.0 **** 0.06
21705 H 70.26751528005754 135.0344884419008 47.32287801444937 H 0.0 **** 0.06
21706 C 157.23784733808418 149.20803915896374 92.82357481585787 C 0.0 **** -0.24
21707 H 157.47654541508103 148.60390572697355 93.69915186517947 H 0.0 **** 0.06
21708 H 158.15300522239642 149.42427812455298 92.27099186376633 H 0.0 **** 0.06
21709 H 156.77558214393224 150.14297711058242 93.14139876957005 H 0.0 **** 0.06
21710 H 156.54705461310482 148.6605222748288 92.18238388544877 H 0.0 **** 0.06
21711 C 37.76238208876826 8.908799512838229 41.20267329315459 C 0.0 **** -0.24
21712 H 38.06091936039019 8.465677693042025 42.15241887839869 H 0.0 **** 0.06
21713 H 38.621844253421145 9.39910248549944 40.74440924729612 H 0.0 **** 0.06
21714 H 36.97539191756522 9.642077005261513 41.3763560820434 H 0.0 **** 0.06
21715 H 37.39182035621704 8.128568617601232 40.53837375474251 H 0.0 **** 0.06
21716 C 88.82169529951831 181.9800864033062 160.65172856968493 C 0.0 **** -0.24
21717 H 89.7072069004907 181.4423110044081 160.99256281862353 H 0.0 **** 0.06
21718 H 89.1263111981351 182.90077193918327 160.15246364764388 H 0.0 **** 0.06
21719 H 88.1920377801902 182.22095291079768 161.5084688320377 H 0.0 **** 0.06
21720 H 88.26378978562506 181.35499886267263 159.9542587518549 H 0.0 **** 0.06
21721 C 98.19615050757982 71.0574449338867 167.8573521821764 C 0.0 **** -0.24
21722 H 98.66040648580837 71.52778208422035 168.7247699052775 H 0.0 **** 0.06
21723 H 97.13184254157919 70.91582551978411 168.046934994367 H 0.0 **** 0.06
21724 H 98.66542345184867 70.09092528286965 167.6742461984098 H 0.0 **** 0.06
21725 H 98.32867133594361 71.6966233478509 166.98372506336375 H 0.0 **** 0.06
21726 C 184.89989337290248 81.0614693350102 69.8580155025834 C 0.0 **** -0.24
21727 H 184.43326281122665 82.00479437980175 70.14258521923908 H 0.0 **** 0.06
21728 H 185.837402789701 80.94149244640346 70.40155555384011 H 0.0 **** 0.06
21729 H 185.09827256132718 81.06386986206542 68.78671253241357 H 0.0 **** 0.06
21730 H 184.2294076319157 80.23776071207243 70.10178404357016 H 0.0 **** 0.06
21731 C 59.407541237881546 105.14088185847912 22.73687042763099 C 0.0 **** -0.24
21732 H 60.29795606059069 105.09755435827016 23.36334971097341 H 0.0 **** 0.06
21733 H 58.569778679543745 105.51977583735042 23.321556985618642 H 0.0 **** 0.06
21734 H 59.173015918893114 104.14113879556284 22.369949677609554 H 0.0 **** 0.06
21735 H 59.59040020858038 105.80379079459225 21.89106934068785 H 0.0 **** 0.06
21736 C 7.2876800252776945 28.003085765477792 197.3883105004132 C 0.0 **** -0.24
21737 H 7.810210252686417 27.488319334818826 196.58173698974088 H 0.0 **** 0.06
21738 H 8.005459917697436 28.304653210633646 198.15169981948807 H 0.0 **** 0.06
21739 H 6.549208491138913 27.33259585488598 197.82757944481162 H 0.0 **** 0.06
21740 H 6.7867639169280665 28.885423639605122 196.99070132642873 H 0.0 **** 0.06
21741 C 53.860852114629665 60.20114604516425 185.20714999719002 C 0.0 **** -0.24
21742 H 53.50044943533362 60.77410321186767 184.35361844737199 H 0.0 **** 0.06
21743 H 53.13964963401219 59.420707535017186 185.450591688174 H 0.0 **** 0.06
21744 H 53.98287225267245 60.86350285724538 186.06399284782475 H 0.0 **** 0.06
21745 H 54.82026182895203 59.745290667893954 184.9603018041093 H 0.0 **** 0.06
21746 C 111.26668263577233 156.35564278539414 177.82388793601342 C 0.0 **** -0.24
21747 H 111.19788112516744 156.89796886622713 178.76675107901715 H 0.0 **** 0.06
21748 H 112.29426482990084 156.02567894366234 177.66822853263608 H 0.0 **** 0.06
21749 H 110.96651242916954 157.0089697276145 177.00467557687838 H 0.0 **** 0.06
21750 H 110.60768455215617 155.48775291412966 177.85597907563033 H 0.0 **** 0.06
21751 C 208.1119215500434 98.46083099708953 41.992083331721744 C 0.0 **** -0.24
21752 H 208.73816818330883 98.4163369194279 41.10065045138248 H 0.0 **** 0.06
21753 H 207.42409399261146 97.6154301748045 41.99618612271536 H 0.0 **** 0.06
21754 H 207.5448708596831 99.39168796438226 41.98926255861329 H 0.0 **** 0.06
21755 H 208.7420018357761 98.42217772932123 42.8803444897851 H 0.0 **** 0.06
21756 C 4.656599440598399 162.12639474927104 85.54102478371207 C 0.0 **** -0.24
21757 H 5.0492224514339625 162.61377938694022 84.64731870112739 H 0.0 **** 0.06
21758 H 5.456474818620308 161.5727422455933 86.03297338425837 H 0.0 **** 0.06
21759 H 3.8593691070380203 161.43950089330133 85.25833812125536 H 0.0 **** 0.06
21760 H 4.263601527743049 162.88036757013495 86.2226073186644 H 0.0 **** 0.06
21761 C 7.4259177365759115 201.08927563956766 121.78262841801963 C 0.0 **** -0.24
21762 H 7.853911573286098 201.41168275231843 122.73147037250074 H 0.0 **** 0.06
21763 H 6.546550301341711 201.69232498954426 121.55767392748591 H 0.0 **** 0.06
21764 H 7.139518778103081 200.03985968330556 121.85198924343264 H 0.0 **** 0.06
21765 H 8.164361726628727 201.21271815230506 120.99089074421359 H 0.0 **** 0.06
21766 C 50.01329563733111 143.18594210237103 153.07791355913673 C 0.0 **** -0.24
21767 H 50.70172661093844 143.07352359975778 153.91541102742212 H 0.0 **** 0.06
21768 H 50.42490057186694 143.89794408489644 152.36250829458174 H 0.0 **** 0.06
21769 H 49.05405482807788 143.55256545892559 153.44476439865429 H 0.0 **** 0.06
21770 H 49.87295056057488 142.22164472007637 152.59124023335687 H 0.0 **** 0.06
21771 C 94.46924765527835 124.22613213836887 174.52896384141462 C 0.0 **** -0.24
21772 H 95.46042287864474 124.30239879907744 174.0824247032561 H 0.0 **** 0.06
21773 H 93.74848132652035 123.93457032768266 173.7653679156317 H 0.0 **** 0.06
21774 H 94.18553135256577 125.19205413822657 174.94779781844974 H 0.0 **** 0.06
21775 H 94.48362263778465 123.47684971060075 175.3204948520631 H 0.0 **** 0.06
21776 C 70.10183275362333 158.5534025531846 89.45194381419718 C 0.0 **** -0.24
21777 H 71.06211362125079 158.0721970496524 89.26622074938744 H 0.0 **** 0.06
21778 H 69.30483711513479 157.9539296550987 89.0109899064753 H 0.0 **** 0.06
21779 H 70.10156624077392 159.54717405687512 89.00484510751225 H 0.0 **** 0.06
21780 H 69.94098154804776 158.63756691219447 90.52660300794379 H 0.0 **** 0.06
21781 C 91.5455936542569 70.83043110249736 33.265508583366866 C 0.0 **** -0.24
21782 H 91.70321500537948 71.88192143133654 33.02224173193662 H 0.0 **** 0.06
21783 H 91.33322062304704 70.73221288221623 34.33009536392497 H 0.0 **** 0.06
21784 H 92.44335988183154 70.26327048372502 33.019926076884374 H 0.0 **** 0.06
21785 H 90.70457857139833 70.44690095213326 32.68918891126741 H 0.0 **** 0.06
21786 C 147.23433436640534 184.77148594728988 211.59597288778718 C 0.0 **** -0.24
21787 H 147.61353130567255 183.98094145353213 210.94863741365148 H 0.0 **** 0.06
21788 H 146.20382812277023 184.54861149726963 211.87549574182083 H 0.0 **** 0.06
21789 H 147.2694925804073 185.72243361875718 211.06541512034997 H 0.0 **** 0.06
21790 H 147.84958819770952 184.83179782220878 212.4936138709296 H 0.0 **** 0.06
21791 C 29.57829728696251 195.14652924111792 127.55398402387118 C 0.0 **** -0.24
21792 H 30.602374103401573 194.97512895560766 127.88426078270288 H 0.0 **** 0.06
21793 H 29.08563767398175 195.8327417222086 128.2433743966174 H 0.0 **** 0.06
21794 H 29.039061027402852 194.19874849290915 127.53660392665381 H 0.0 **** 0.06
21795 H 29.585648119046553 195.57818989055852 126.55371447735826 H 0.0 **** 0.06
21796 C 2.2456290415865965 37.5279743504299 205.9806121496762 C 0.0 **** -0.24
21797 H 3.17596031262849 37.258806373294135 206.4813970075693 H 0.0 **** 0.06
21798 H 2.412277328075106 38.39951981897924 205.3486287963567 H 0.0 **** 0.06
21799 H 1.4860938547408864 37.75915647703127 206.7277682706156 H 0.0 **** 0.06
21800 H 1.9087199524934135 36.69206648628408 205.36751799251672 H 0.0 **** 0.06
21801 C 199.81661781160835 119.58566725508386 132.20233066256168 C 0.0 **** -0.24
21802 H 200.05070986184722 120.17033415407882 133.0920607724633 H 0.0 **** 0.06
21803 H 199.1226566435519 118.78676222305417 132.4649231134719 H 0.0 **** 0.06
21804 H 200.73220733866262 119.15379052999593 131.79950634383022 H 0.0 **** 0.06
21805 H 199.36000892759165 120.23266729596666 131.45348594779074 H 0.0 **** 0.06
21806 C 200.56107540520213 26.32425649597984 43.90923356365164 C 0.0 **** -0.24
21807 H 199.56750309917453 26.626280103390542 44.23910313626135 H 0.0 **** 0.06
21808 H 201.12447334730996 27.204457642072256 43.60084610627456 H 0.0 **** 0.06
21809 H 200.4712534010046 25.637353068054438 43.067402919713345 H 0.0 **** 0.06
21810 H 201.08105844192787 25.82837696476109 44.72875248661654 H 0.0 **** 0.06
21811 C 148.10083287818634 142.09375204510684 198.3904506999089 C 0.0 **** -0.24
21812 H 147.64664227603322 142.7005986950167 197.60592905605608 H 0.0 **** 0.06
21813 H 147.7056177952624 142.39789025711048 199.36007079855423 H 0.0 **** 0.06
21814 H 149.18149947718132 142.23451498836658 198.3771605650964 H 0.0 **** 0.06
21815 H 147.86838816182865 141.0429886400779 198.21588018195848 H 0.0 **** 0.06
21816 C 126.45191169836572 75.49787203437585 72.85596579236488 C 0.0 **** -0.24
21817 H 127.36415393947983 75.14711668928506 73.33933928254072 H 0.0 **** 0.06
21818 H 126.48644046303188 76.58272472733584 72.7589012480542 H 0.0 **** 0.06
21819 H 125.58932278628605 75.21277809264576 73.45839666183969 H 0.0 **** 0.06
21820 H 126.36989263290205 75.04682772380507 71.86683079290714 H 0.0 **** 0.06
21821 C 124.8496744645422 122.10156227961504 181.65980041316038 C 0.0 **** -0.24
21822 H 124.0542437836458 122.16572903229583 182.40145381983479 H 0.0 **** 0.06
21823 H 124.42502221131804 122.21420220804795 180.6615580223611 H 0.0 **** 0.06
21824 H 125.34279837098154 121.13280289353376 181.73728714822252 H 0.0 **** 0.06
21825 H 125.57644765212376 122.89474915703518 181.83704730065216 H 0.0 **** 0.06
21826 C 90.4395236566923 143.68890884008715 124.49744828611074 C 0.0 **** -0.24
21827 H 89.79844995312271 143.15852212833198 125.20210677897222 H 0.0 **** 0.06
21828 H 89.89165901387122 143.87018599035792 123.57286943033893 H 0.0 **** 0.06
21829 H 91.32208820120269 143.08569676316375 124.28604312749616 H 0.0 **** 0.06
21830 H 90.74579610012978 144.6412890115903 124.93122052013138 H 0.0 **** 0.06
21831 C 133.88439116983216 205.4576082728039 47.959330890369785 C 0.0 **** -0.24
21832 H 132.81504179520942 205.32295262228465 47.798564298717935 H 0.0 **** 0.06
21833 H 134.06258755376757 206.42525516161103 48.429742099490895 H 0.0 **** 0.06
21834 H 134.40451623965498 205.41741611464724 47.002069878177565 H 0.0 **** 0.06
21835 H 134.25665561184962 204.6643066656993 48.608741321553836 H 0.0 **** 0.06
21836 C 75.43941578160941 161.79697996391587 69.13327453839267 C 0.0 **** -0.24
21837 H 74.49429719640524 161.38467297258467 69.48898786378592 H 0.0 **** 0.06
21838 H 75.81809886944832 161.18407804019805 68.31561600374121 H 0.0 **** 0.06
21839 H 76.16157349906065 161.80332974620862 69.94874312858371 H 0.0 **** 0.06
21840 H 75.27956277263358 162.8160941348489 68.78068488319957 H 0.0 **** 0.06
21841 C 187.95349759104352 14.313305354869215 199.58393509492925 C 0.0 **** -0.24
21842 H 187.9765482294836 13.223305731048072 199.58117214778784 H 0.0 **** 0.06
21843 H 188.50564590920135 14.685933199386966 200.44782044227443 H 0.0 **** 0.06
21844 H 186.9197909334277 14.653877507523589 199.63843538338233 H 0.0 **** 0.06
21845 H 188.41234676414723 14.687562350674568 198.66950343977257 H 0.0 **** 0.06
21846 C 187.03393569083897 93.30217203172889 23.01025973736091 C 0.0 **** -0.24
21847 H 186.8585719028901 92.30631178408346 23.415439970426235 H 0.0 **** 0.06
21848 H 187.60950692294853 93.89044528366274 23.726162317566775 H 0.0 **** 0.06
21849 H 186.07803992049594 93.79214660999212 22.823483572834107 H 0.0 **** 0.06
21850 H 187.58947829828764 93.22118500951574 22.07608435432809 H 0.0 **** 0.06
21851 C 186.2113586543134 143.1146508992456 121.26051601663733 C 0.0 **** -0.24
21852 H 185.6195367083939 142.9263637413335 120.36477282439239 H 0.0 **** 0.06
21853 H 186.40517209681732 142.17200910264341 121.77310156331345 H 0.0 **** 0.06
21854 H 185.66366259908185 143.78290497069344 121.92402158648872 H 0.0 **** 0.06
21855 H 187.15827049853033 143.5765894519098 120.98015040085005 H 0.0 **** 0.06
21856 C 135.73499043871942 205.7076874730466 146.44392392262563 C 0.0 **** -0.24
21857 H 134.9968449567168 205.40340614270653 145.70172768211137 H 0.0 **** 0.06
21858 H 136.36309190346014 204.85402291306588 146.7017272062564 H 0.0 **** 0.06
21859 H 135.22508427889596 206.06696612784762 147.33830175564844 H 0.0 **** 0.06
21860 H 136.35455362592245 206.50509314414163 146.0344476995419 H 0.0 **** 0.06
21861 C 207.90500727704324 183.55107720012273 114.27532699480746 C 0.0 **** -0.24
21862 H 208.13849142778582 182.81035175949552 113.51153835682346 H 0.0 **** 0.06
21863 H 207.16820706138782 184.2539700276214 113.88528049975118 H 0.0 **** 0.06
21864 H 208.81284912160447 184.08993930749853 114.547181656565 H 0.0 **** 0.06
21865 H 207.50136085731918 183.0514038471761 115.15576225036422 H 0.0 **** 0.06
21866 C 158.0189695359835 172.69119642590687 174.88796326882886 C 0.0 **** -0.24
21867 H 159.0703583016741 172.7810650515386 174.6138128730596 H 0.0 **** 0.06
21868 H 157.4209388064794 172.54317796746145 173.98939334938314 H 0.0 **** 0.06
21869 H 157.6967505027357 173.60197149889416 175.39283335099105 H 0.0 **** 0.06
21870 H 157.8886317018874 171.8403738604652 175.55614298646827 H 0.0 **** 0.06
21871 C 51.87538486755449 24.885529736329204 118.38220731107866 C 0.0 **** -0.24
21872 H 51.597826030564136 24.592088479065012 119.39401284416074 H 0.0 **** 0.06
21873 H 51.12251756426133 25.56540060851296 117.98207161525748 H 0.0 **** 0.06
21874 H 51.936055110436996 23.998943908003582 117.7511868487273 H 0.0 **** 0.06
21875 H 52.843804304007165 25.38566387271115 118.4010959636196 H 0.0 **** 0.06
21876 C 210.5926742718464 114.14487097460842 126.91202651179167 C 0.0 **** -0.24
21877 H 209.98551111797968 114.89196513339404 127.42422313104716 H 0.0 **** 0.06
21878 H 210.48404544837422 113.18273526442432 127.41445045789875 H 0.0 **** 0.06
21879 H 211.63916887100999 114.45031836856928 126.93409672325787 H 0.0 **** 0.06
21880 H 210.26181061673898 114.05438435722483 125.87756455268861 H 0.0 **** 0.06
21881 C 139.98748664841492 102.93081105456672 37.149551603187575 C 0.0 **** -0.24
21882 H 140.61069654984033 103.80722641869598 36.9730136258371 H 0.0 **** 0.06
21883 H 139.5769809542747 102.5801464277775 36.202036668759774 H 0.0 **** 0.06
21884 H 139.1712767411948 103.19511179755209 37.82313951104106 H 0.0 **** 0.06
21885 H 140.58919354662095 102.14206877773195 37.59979214485611 H 0.0 **** 0.06
21886 C 29.430328529899853 150.47514600250008 119.3536678785198 C 0.0 **** -0.24
21887 H 29.703108752958002 149.5230996217672 118.90015299678582 H 0.0 **** 0.06
21888 H 29.02540664802177 151.13883314565498 118.58930945988361 H 0.0 **** 0.06
21889 H 30.313465296984248 150.93164971496918 119.80046083415353 H 0.0 **** 0.06
21890 H 28.678943092758544 150.30763586203722 120.12541551640793 H 0.0 **** 0.06
21891 C 24.687739716082177 195.15257659910395 161.77645373618438 C 0.0 **** -0.24
21892 H 23.836033002566808 194.52298103142118 161.52300907392714 H 0.0 **** 0.06
21893 H 24.48880678068403 196.17730996926366 161.46148809245622 H 0.0 **** 0.06
21894 H 25.57846478367685 194.78265865564353 161.26779793873567 H 0.0 **** 0.06
21895 H 24.84892913954387 195.12828919680268 162.85423072134665 H 0.0 **** 0.06
21896 C 83.04965555546379 0.02091117466346759 53.92466366724483 C 0.0 **** -0.24
21897 H 83.14590047991307 -0.9906336869823349 54.32002180334425 H 0.0 **** 0.06
21898 H 82.01547430595288 0.3512278582167596 54.022142737100864 H 0.0 **** 0.06
21899 H 83.33659485489461 0.027917274460548924 52.873312687208795 H 0.0 **** 0.06
21900 H 83.70159540883496 0.6921288789203004 54.48346895801103 H 0.0 **** 0.06
21901 C 127.11664432513413 208.59356899303435 55.187820106684754 C 0.0 **** -0.24
21902 H 127.70063398799346 207.68182777472168 55.31818184045869 H 0.0 **** 0.06
21903 H 126.08286541787942 208.33189879515876 54.96371298249129 H 0.0 **** 0.06
21904 H 127.5317974013351 209.17475670261092 54.36477946584888 H 0.0 **** 0.06
21905 H 127.15372985137441 209.18227523479766 56.10381341590059 H 0.0 **** 0.06
21906 C 18.33989912455013 11.059292709842225 143.02312695098368 C 0.0 **** -0.24
21907 H 18.103948749163777 11.888139352325425 143.69054121531843 H 0.0 **** 0.06
21908 H 19.42161468960535 10.977251321888389 142.91503999176302 H 0.0 **** 0.06
21909 H 17.88975415442974 11.239600786056542 142.04663698694043 H 0.0 **** 0.06
21910 H 17.944171431855978 10.133442096823245 143.43966189391932 H 0.0 **** 0.06
21911 C 172.1481039982822 90.48779100562614 113.00159723683616 C 0.0 **** -0.24
21912 H 171.07734762405073 90.3049670843479 112.91535151054849 H 0.0 **** 0.06
21913 H 172.69405657526218 89.58870591992142 112.71383527263508 H 0.0 **** 0.06
21914 H 172.3907790440008 90.7470484422469 114.0320993180308 H 0.0 **** 0.06
21915 H 172.42927634740573 91.3104907595668 112.34406217006558 H 0.0 **** 0.06
21916 C 154.2609057608728 23.863573546878172 103.85357694998392 C 0.0 **** -0.24
21917 H 155.06795271830663 23.81934819559848 103.12250892487448 H 0.0 **** 0.06
21918 H 154.6792367149165 24.03492374169707 104.8457122584541 H 0.0 **** 0.06
21919 H 153.7142908839915 22.920571869287755 103.84716222219548 H 0.0 **** 0.06
21920 H 153.58331784325924 24.677857400549726 103.59921001895897 H 0.0 **** 0.06
21921 C 3.783203365571822 59.044840679892914 101.31456494290244 C 0.0 **** -0.24
21922 H 3.3923492658647305 58.41161295061927 100.51826609964827 H 0.0 **** 0.06
21923 H 2.9831188306135417 59.27881635637938 102.0169709928228 H 0.0 **** 0.06
21924 H 4.1733410216004 59.968045018744405 100.88662162066008 H 0.0 **** 0.06
21925 H 4.5832095899887335 58.51935177393479 101.83648600480491 H 0.0 **** 0.06
21926 C 181.98697851016678 177.10302003125832 133.34033696069577 C 0.0 **** -0.24
21927 H 181.92096700051584 176.23500779677067 132.6835939400396 H 0.0 **** 0.06
21928 H 181.9208870788985 178.01429264548653 132.74582852170846 H 0.0 **** 0.06
21929 H 182.93799641862233 177.08311070801082 133.87212045537655 H 0.0 **** 0.06
21930 H 181.1676100744656 177.07675426765627 134.05925811524133 H 0.0 **** 0.06
21931 C 102.36055457327514 142.3256532005301 98.82287143537859 C 0.0 **** -0.24
21932 H 101.98296655132212 143.2737189221114 99.20774392603518 H 0.0 **** 0.06
21933 H 101.8784343733315 141.50236672739123 99.35066746093271 H 0.0 **** 0.06
21934 H 103.43856963501888 142.2751015884014 98.97685261138817 H 0.0 **** 0.06
21935 H 102.14190413990424 142.2529286115028 97.75784127305594 H 0.0 **** 0.06
21936 C 162.04506892267003 45.31745723870495 73.44710280536223 C 0.0 **** -0.24
21937 H 162.59736572405274 46.08396042241384 73.99064235992192 H 0.0 **** 0.06
21938 H 162.74196437990943 44.57118273808524 73.06420693618269 H 0.0 **** 0.06
21939 H 161.5102936126978 45.775164580638005 72.61565979997992 H 0.0 **** 0.06
21940 H 161.33253147203865 44.83848267700617 74.1185258348434 H 0.0 **** 0.06
21941 C 75.55054370031684 208.72717091160405 155.84338040519788 C 0.0 **** -0.24
21942 H 76.4580272792619 209.28362159874908 155.6079609251649 H 0.0 **** 0.06
21943 H 74.70128850235216 209.18473956752064 155.33480721482624 H 0.0 **** 0.06
21944 H 75.38303100345644 208.74616749005384 156.9202892982496 H 0.0 **** 0.06
21945 H 75.65997787081858 207.69468015328488 155.51130189620284 H 0.0 **** 0.06
21946 C 201.98619967897656 50.09463476714083 161.55183741164683 C 0.0 **** -0.24
21947 H 202.86825382038518 50.72243025611402 161.43103000609352 H 0.0 **** 0.06
21948 H 201.5429213954738 50.273972969312894 162.5319676732941 H 0.0 **** 0.06
21949 H 202.27193628272482 49.046306123419484 161.46877854631106 H 0.0 **** 0.06
21950 H 201.2594535252681 50.33593303891493 160.77557887009004 H 0.0 **** 0.06
21951 C 14.050173531701375 58.941317377381324 180.30434586598446 C 0.0 **** -0.24
21952 H 13.35649049068222 59.43542662101345 179.62387321012153 H 0.0 **** 0.06
21953 H 15.07293982891072 59.19230084468836 180.02571795472312 H 0.0 **** 0.06
21954 H 13.910082768840297 57.86199672992461 180.2448004646219 H 0.0 **** 0.06
21955 H 13.858316715211657 59.27544496022776 181.3243281545905 H 0.0 **** 0.06
21956 C 148.1134420446175 28.149166131390643 135.82374336859255 C 0.0 **** -0.24
21957 H 147.59876660912255 27.344231026211787 136.3495121662208 H 0.0 **** 0.06
21958 H 147.4203732313993 28.633483931713897 135.13527765521542 H 0.0 **** 0.06
21959 H 148.9539978712824 27.738065624138585 135.26434063524908 H 0.0 **** 0.06
21960 H 148.47903321436593 28.878569280760132 136.5461451055719 H 0.0 **** 0.06
21961 C 195.6598924210719 121.2975403398121 24.817137321090556 C 0.0 **** -0.24
21962 H 196.56367762571375 121.87260627285882 25.020697208596502 H 0.0 **** 0.06
21963 H 195.6243045265114 121.04137833759556 23.758265437000063 H 0.0 **** 0.06
21964 H 194.78485000378387 121.89233150727323 25.078237616061642 H 0.0 **** 0.06
21965 H 195.66918574775593 120.38378374005659 25.411298617802245 H 0.0 **** 0.06
21966 C 140.20741747709025 192.10082429010663 106.37746586339783 C 0.0 **** -0.24
21967 H 141.17830622769674 191.64587731486793 106.57322187804611 H 0.0 **** 0.06
21968 H 139.75298619501723 191.6239817046099 105.5084782277862 H 0.0 **** 0.06
21969 H 140.337549931894 193.16556479845033 106.18168960111835 H 0.0 **** 0.06
21970 H 139.56216155453404 191.9666683811557 107.2451438613739 H 0.0 **** 0.06
21971 C 97.19456037259896 79.53620693266237 214.51649976618205 C 0.0 **** -0.24
21972 H 96.8403351344695 79.12084910365667 215.45972162969244 H 0.0 **** 0.06
21973 H 98.27837734950039 79.65015749362891 214.55371780753646 H 0.0 **** 0.06
21974 H 96.73157805952219 80.50943757223195 214.35265947429286 H 0.0 **** 0.06
21975 H 96.92627922800447 78.86499719662498 213.70081057904042 H 0.0 **** 0.06
21976 C 27.21985303899139 79.02457950931573 193.35325241678956 C 0.0 **** -0.24
21977 H 26.343369073275667 78.91342611353544 192.71577308556988 H 0.0 **** 0.06
21978 H 27.85285541522957 78.14216951107606 193.25614044708206 H 0.0 **** 0.06
21979 H 26.90339757953585 79.13378239325839 194.38993162775571 H 0.0 **** 0.06
21980 H 27.77972896775745 79.90897568969139 193.04975205290964 H 0.0 **** 0.06
21981 C 126.05496304302783 39.202818273385844 93.11962693800791 C 0.0 **** -0.24
21982 H 126.55519754642096 38.68383940103797 92.30153677126589 H 0.0 **** 0.06
21983 H 125.58506166861098 38.473256159379844 93.77916689592462 H 0.0 **** 0.06
21984 H 125.29390172128198 39.86987855497756 92.71352178054184 H 0.0 **** 0.06
21985 H 126.78468395769728 39.78459710836955 93.68113640289607 H 0.0 **** 0.06
21986 C 196.31182809352345 9.982814294457967 145.12401482805706 C 0.0 **** -0.24
21987 H 196.9316968134378 10.066750526479098 144.23146364590235 H 0.0 **** 0.06
21988 H 196.05322846757673 8.937128523424974 145.28935880608276 H 0.0 **** 0.06
21989 H 195.40125803563143 10.566177155673074 144.98853024050703 H 0.0 **** 0.06
21990 H 196.86205269251218 10.362443533986436 145.9848084521184 H 0.0 **** 0.06
21991 C 26.27482379481576 52.83072254840681 172.59782682813528 C 0.0 **** -0.24
21992 H 27.073515532022085 52.45323235027635 173.23519781214839 H 0.0 **** 0.06
21993 H 25.319682911409686 52.42714533060234 172.93628433835983 H 0.0 **** 0.06
21994 H 26.455215429939713 52.52216180447509 171.56826368971815 H 0.0 **** 0.06
21995 H 26.249810820628625 53.91876569388168 172.6521461589618 H 0.0 **** 0.06
21996 C 184.61352441715104 109.2518986801126 161.9438699962618 C 0.0 **** -0.24
21997 H 185.05837065258163 108.53674007951666 162.6372221239329 H 0.0 **** 0.06
21998 H 185.3870291283571 109.64776933226024 161.28574688774654 H 0.0 **** 0.06
21999 H 184.16022842590328 110.06797376235157 162.50562556843568 H 0.0 **** 0.06
22000 H 183.84926575483112 108.75243649129881 161.34798547334475 H 0.0 **** 0.06
22001 C 151.75277951695858 207.395832927327 76.55759265605074 C 0.0 **** -0.24
22002 H 152.6470677296174 207.00640797290833 76.07025914837361 H 0.0 **** 0.06
22003 H 152.0227484037432 208.24120386971993 77.18938208513298 H 0.0 **** 0.06
22004 H 151.3038600249634 206.6128707662288 77.16972229942216 H 0.0 **** 0.06
22005 H 151.0386415658624 207.71964864702022 75.8004430648018 H 0.0 **** 0.06
22006 C 15.456181523066249 199.65715494584168 50.41900918178057 C 0.0 **** -0.24
22007 H 15.52776731031517 199.2741458185034 49.40135717406571 H 0.0 **** 0.06
22008 H 14.488638561243462 200.14003483049967 50.55787882952312 H 0.0 **** 0.06
22009 H 16.25249589568304 200.38065435457474 50.59145380672754 H 0.0 **** 0.06
22010 H 15.555824912679697 198.83241824047076 51.124982768698274 H 0.0 **** 0.06
22011 C 170.30418107248758 151.6925983709388 6.945095507508995 C 0.0 **** -0.24
22012 H 170.84104276806303 150.8554673113117 7.39234628885913 H 0.0 **** 0.06
22013 H 169.48393208521088 151.31351834372333 6.3344736196218605 H 0.0 **** 0.06
22014 H 170.9867963260552 152.26923713342728 6.319932880491251 H 0.0 **** 0.06
22015 H 169.90623666862052 152.33220040850932 7.733036257181311 H 0.0 **** 0.06
22016 C 207.18560378888844 143.6880201761382 97.6675552460705 C 0.0 **** -0.24
22017 H 207.58503194663086 143.8377984551098 98.67019363369319 H 0.0 **** 0.06
22018 H 206.09703344783173 143.74332408114037 97.69810425830168 H 0.0 **** 0.06
22019 H 207.48875379287318 142.70881917662405 97.29716813611493 H 0.0 **** 0.06
22020 H 207.5703498072342 144.4622905926289 97.0041037005751 H 0.0 **** 0.06
22021 C 37.95318780247288 62.5727090265615 94.14536941008176 C 0.0 **** -0.24
22022 H 38.865623619955954 62.15265422111946 94.56838474442326 H 0.0 **** 0.06
22023 H 37.85398135177127 63.6130651140478 94.45575857738122 H 0.0 **** 0.06
22024 H 37.093557310889935 62.0034977454178 94.49979158790522 H 0.0 **** 0.06
22025 H 37.999886205821596 62.520283935765036 93.05718329448534 H 0.0 **** 0.06
22026 C 212.093775393839 137.88141100336645 44.98268454449453 C 0.0 **** -0.24
22027 H 212.08146551288968 138.68490906528194 45.71949488459029 H 0.0 **** 0.06
22028 H 211.7403451964264 138.26163908642854 44.02463348933969 H 0.0 **** 0.06
22029 H 211.44233407754643 137.07339984242822 45.31628808083292 H 0.0 **** 0.06
22030 H 213.11087428538892 137.50602678349873 44.87201991023295 H 0.0 **** 0.06
22031 C 164.8406279721101 24.141051746286223 192.16420991497995 C 0.0 **** -0.24
22032 H 165.06629567457804 23.079571505313993 192.06421033821073 H 0.0 **** 0.06
22033 H 165.46155192929842 24.571236100047372 192.95014311895588 H 0.0 **** 0.06
22034 H 163.78861464217243 24.26671791096726 192.4212723857304 H 0.0 **** 0.06
22035 H 165.04662151085847 24.646831914669576 191.220407374557 H 0.0 **** 0.06
22036 C 130.3777836746952 38.33480045954951 29.57000673907939 C 0.0 **** -0.24
22037 H 130.65016379837363 39.309911632644344 29.167000046970458 H 0.0 **** 0.06
22038 H 129.53226441557268 37.9345197551834 29.010869304222794 H 0.0 **** 0.06
22039 H 130.10314446349162 38.43961254812018 30.619552290246077 H 0.0 **** 0.06
22040 H 131.22571711487154 37.65605948308021 29.481526828947878 H 0.0 **** 0.06
22041 C 84.12878478774093 55.373497691165895 47.10002208362533 C 0.0 **** -0.24
22042 H 84.1949438859238 55.28590604426084 46.01587642817441 H 0.0 **** 0.06
22043 H 83.23452738775973 55.938264042295 47.364559069572465 H 0.0 **** 0.06
22044 H 85.01086622513589 55.89175056350226 47.47687808327004 H 0.0 **** 0.06
22045 H 84.07455289351873 54.378649799630196 47.541509005359444 H 0.0 **** 0.06
22046 C 94.2343693286388 29.554911014164418 121.38260241494669 C 0.0 **** -0.24
22047 H 95.25179061391945 29.34873063216753 121.71441216328799 H 0.0 **** 0.06
22048 H 93.83870015406235 30.408188551343073 121.9347731400648 H 0.0 **** 0.06
22049 H 93.6080846826115 28.681207936997282 121.56553307905955 H 0.0 **** 0.06
22050 H 94.23865356519069 29.78262271584515 120.31700110554345 H 0.0 **** 0.06
22051 C 12.175315687185744 199.84757827800192 204.09726530772528 C 0.0 **** -0.24
22052 H 12.638708636274032 199.2338094005633 204.86931120420718 H 0.0 **** 0.06
22053 H 11.451246129054894 199.24967039554937 203.54318265396194 H 0.0 **** 0.06
22054 H 12.94299790150373 200.21407956880012 203.41518908645477 H 0.0 **** 0.06
22055 H 11.668710089341033 200.69404220976872 204.56180242291953 H 0.0 **** 0.06
22056 C 42.207801473812424 114.85663012656944 167.08876304527814 C 0.0 **** -0.24
22057 H 43.085801670824424 114.21515859896853 167.1704091462828 H 0.0 **** 0.06
22058 H 41.99664413313718 115.0510191622492 166.0368145524075 H 0.0 **** 0.06
22059 H 42.39813036521542 115.79908435702363 167.6017826017462 H 0.0 **** 0.06
22060 H 41.35166995517284 114.36080095284389 167.54520403130604 H 0.0 **** 0.06
22061 C 71.37132568962102 130.61312862493077 156.14497812370354 C 0.0 **** -0.24
22062 H 70.73433695833421 131.14438202450236 155.43820495759638 H 0.0 **** 0.06
22063 H 71.89238518084449 131.33225272188383 156.77681566006663 H 0.0 **** 0.06
22064 H 72.100823459568 130.01564488308128 155.5972954276038 H 0.0 **** 0.06
22065 H 70.75923975818569 129.96009799726158 156.76592814131158 H 0.0 **** 0.06
22066 C 88.6055575505701 119.74959850666436 78.34977858725273 C 0.0 **** -0.24
22067 H 88.83302626059879 120.66819506058802 78.89052297365657 H 0.0 **** 0.06
22068 H 89.48221475707733 119.10183526218644 78.34953687009005 H 0.0 **** 0.06
22069 H 88.33076659933027 119.99038294670108 77.3235559515204 H 0.0 **** 0.06
22070 H 87.77474908236735 119.23826460680927 78.83715635449101 H 0.0 **** 0.06
22071 C 190.1108964619514 72.36817132294618 119.04742283800228 C 0.0 **** -0.24
22072 H 191.08063170949353 72.83292461376573 118.87035771223121 H 0.0 **** 0.06
22073 H 190.07351168510368 71.98065039488557 120.0650470461158 H 0.0 **** 0.06
22074 H 189.96587064709928 71.55077157255107 118.34086830883676 H 0.0 **** 0.06
22075 H 189.32320289410438 73.10922050873017 118.91139679510162 H 0.0 **** 0.06
22076 C 140.466699738868 3.3889075145198717 92.06368728998241 C 0.0 **** -0.24
22077 H 140.38049551777647 4.385818799750297 92.49712226285295 H 0.0 **** 0.06
22078 H 141.4853277454332 3.2361607023914587 91.70660111257767 H 0.0 **** 0.06
22079 H 139.76994287627417 3.2941604508567366 91.23071189521899 H 0.0 **** 0.06
22080 H 140.23071094366657 2.6422333581895145 92.82148483468065 H 0.0 **** 0.06
22081 C 44.31581646323599 1.701649369850088 66.1565377160152 C 0.0 **** -0.24
22082 H 43.631956995709515 1.0427938109869217 65.6218137584445 H 0.0 **** 0.06
22083 H 45.30972472164626 1.2528460190216606 66.17739652971164 H 0.0 **** 0.06
22084 H 43.95977266422423 1.8432526203109205 67.1768820041021 H 0.0 **** 0.06
22085 H 44.36184549786802 2.6657499918975702 65.65047897589893 H 0.0 **** 0.06
22086 C 126.5905031857309 207.65773932939152 115.1171765195736 C 0.0 **** -0.24
22087 H 125.7351683424831 208.3303892628824 115.17223550933238 H 0.0 **** 0.06
22088 H 126.6767175682201 207.10197638650504 116.05179879483103 H 0.0 **** 0.06
22089 H 127.49871051199015 208.23740203537017 114.95279971910338 H 0.0 **** 0.06
22090 H 126.45106832605906 206.9595548229688 114.29141779993256 H 0.0 **** 0.06
22091 C 77.72301175893676 174.08095520141342 33.41563397341076 C 0.0 **** -0.24
22092 H 77.08688645665467 173.3896782698221 32.862886346185604 H 0.0 **** 0.06
22093 H 78.69227978512527 173.61567723054753 33.59717199630103 H 0.0 **** 0.06
22094 H 77.25246819966759 174.32594923272885 34.36791062588679 H 0.0 **** 0.06
22095 H 77.86019789051392 174.99251637891427 32.83316909262993 H 0.0 **** 0.06
22096 C 135.34214587299306 69.72692075727961 119.33628063652638 C 0.0 **** -0.24
22097 H 135.54933384201507 69.71810231860975 120.40583778688368 H 0.0 **** 0.06
22098 H 136.27715321023237 69.63567350774262 118.78339605738141 H 0.0 **** 0.06
22099 H 134.85254733773087 70.66367110028374 119.06933267900276 H 0.0 **** 0.06
22100 H 134.68851950335767 68.89120293041486 119.08648388204138 H 0.0 **** 0.06
22101 C 181.58227518341238 0.5282852089650305 49.86202724480694 C 0.0 **** -0.24
22102 H 181.68815915424014 -0.2337169658982603 50.634417309925425 H 0.0 **** 0.06
22103 H 180.5376300763802 0.8332958508237027 49.79395184750865 H 0.0 **** 0.06
22104 H 181.9054321684957 0.12173760060815653 48.90398667547743 H 0.0 **** 0.06
22105 H 182.19724644639086 1.3913476787752899 50.11692458591301 H 0.0 **** 0.06
22106 C 2.078950277530012 44.282427509944284 192.42027261539363 C 0.0 **** -0.24
22107 H 1.5582864990395962 44.61977857479094 191.5241422549963 H 0.0 **** 0.06
22108 H 1.6073549050715954 44.720166879877254 193.30076747935357 H 0.0 **** 0.06
22109 H 3.1223037447281428 44.5942838438971 192.37296187957006 H 0.0 **** 0.06
22110 H 2.0268579186283944 43.19514905437505 192.48227336967787 H 0.0 **** 0.06
22111 C 143.92389579363345 118.4194874705616 27.483276925504953 C 0.0 **** -0.24
22112 H 144.34520598065887 118.24009320723421 26.494044109617562 H 0.0 **** 0.06
22113 H 142.91785689860342 118.8261856839098 27.37972286253776 H 0.0 **** 0.06
22114 H 144.55075960437432 119.13070420524458 28.021429934163564 H 0.0 **** 0.06
22115 H 143.8820063839094 117.48169011227019 28.035583450531377 H 0.0 **** 0.06
22116 C 195.1782807957137 17.871064586111302 125.34995493168584 C 0.0 **** -0.24
22117 H 196.17209773658823 18.059532284118006 125.75511902035653 H 0.0 **** 0.06
22118 H 195.1750719868961 16.913351857936348 124.82780150555114 H 0.0 **** 0.06
22119 H 194.91268854995258 18.666591046967582 124.65440297076971 H 0.0 **** 0.06
22120 H 194.45320352827224 17.84353805717697 126.1640602091285 H 0.0 **** 0.06
22121 C 98.64056563132725 118.08521523569512 131.9656743873595 C 0.0 **** -0.24
22122 H 99.49976980596453 118.247907362064 132.61718771267175 H 0.0 **** 0.06
22123 H 97.76315470227588 118.56806769582435 132.39585307011993 H 0.0 **** 0.06
22124 H 98.45574398078098 117.01568978173181 131.8692929346056 H 0.0 **** 0.06
22125 H 98.84410940357382 118.50985131977906 130.98266713172518 H 0.0 **** 0.06
22126 C 76.30600251616119 114.2247843357415 3.263972329852834 C 0.0 **** -0.24
22127 H 75.30594532261398 114.03349201463158 2.875196057466894 H 0.0 **** 0.06
22128 H 76.5472907392222 113.4817307523038 4.025001584309621 H 0.0 **** 0.06
22129 H 76.33998951096271 115.22050886049055 3.7046430343539214 H 0.0 **** 0.06
22130 H 77.02973311638101 114.16151794789124 2.4522023523553003 H 0.0 **** 0.06
22131 C 82.42302382159755 0.9279829454209718 195.4849559737389 C 0.0 **** -0.24
22132 H 81.55750808326434 1.3550720672016112 194.97893668899965 H 0.0 **** 0.06
22133 H 82.93135456830078 1.7066868799129509 196.05425921833347 H 0.0 **** 0.06
22134 H 83.10813226203697 0.5143310266008783 194.74416270223247 H 0.0 **** 0.06
22135 H 82.09645451726396 0.13759061077067258 196.15944730282183 H 0.0 **** 0.06
22136 C 42.04426856588856 92.81844989678876 83.13994935322137 C 0.0 **** -0.24
22137 H 42.38601562153053 92.57550322744964 84.14626193331861 H 0.0 **** 0.06
22138 H 42.907300453003984 92.98142701343596 82.49359993089655 H 0.0 **** 0.06
22139 H 41.43642891652701 93.72201328442094 83.17053170610058 H 0.0 **** 0.06
22140 H 41.44935761920692 91.99273832122947 82.7500371961977 H 0.0 **** 0.06
22141 C 19.31367262311801 34.352333517535556 2.169450866688294 C 0.0 **** -0.24
22142 H 19.213187429952896 35.13235716318272 1.414629047960716 H 0.0 **** 0.06
22143 H 18.784563417643298 33.458181193862174 1.8400981611784175 H 0.0 **** 0.06
22144 H 18.888971324480636 34.70040580383329 3.111554705849784 H 0.0 **** 0.06
22145 H 20.368833012629565 34.11850935281629 2.312009463156329 H 0.0 **** 0.06
22146 C 108.47683450891763 130.87116018103137 192.21581207997994 C 0.0 **** -0.24
22147 H 108.17715836658108 130.58013257681904 193.22292046107796 H 0.0 **** 0.06
22148 H 109.4361834888103 130.41280007919306 191.97600656311798 H 0.0 **** 0.06
22149 H 108.56755773630944 131.95548405798507 192.16292408294797 H 0.0 **** 0.06
22150 H 107.72372385973934 130.53532117235966 191.50230057812826 H 0.0 **** 0.06
22151 C 125.86959599859641 147.69529644073373 118.75137235242248 C 0.0 **** -0.24
22152 H 126.17345017324776 147.64550020550507 117.70597955325617 H 0.0 **** 0.06
22153 H 125.42629098187994 148.67055664666213 118.95378366227116 H 0.0 **** 0.06
22154 H 126.74219077950296 147.55308176778829 119.38938135075851 H 0.0 **** 0.06
22155 H 125.13877796219104 146.91404654197362 118.95557494015803 H 0.0 **** 0.06
22156 C 152.5704858298784 22.652189800273447 52.61367992074422 C 0.0 **** -0.24
22157 H 151.5687705837464 23.084275483519548 52.60841688747489 H 0.0 **** 0.06
22158 H 153.09902559762304 22.973216351839653 53.511514989585606 H 0.0 **** 0.06
22159 H 153.11484649017575 22.98917897086858 51.73158757582867 H 0.0 **** 0.06
22160 H 152.49658990493947 21.56572727229127 52.6025592938651 H 0.0 **** 0.06
22161 C 42.900521317543024 72.56833827693646 141.19538162192424 C 0.0 **** -0.24
22162 H 43.88526057852769 72.17853372611728 140.9357238600839 H 0.0 **** 0.06
22163 H 42.99855937476997 73.29318713997816 142.00314197712402 H 0.0 **** 0.06
22164 H 42.25953958126689 71.7477926686609 141.5185386476989 H 0.0 **** 0.06
22165 H 42.45998235814375 73.05180622485364 140.32358674878242 H 0.0 **** 0.06
22166 C 68.48063603435526 81.7556848561972 115.3760102094991 C 0.0 **** -0.24
22167 H 68.97941791881158 82.7247679164667 115.37028413645703 H 0.0 **** 0.06
22168 H 68.8963023657875 81.13854687302353 116.1721178252264 H 0.0 **** 0.06
22169 H 68.63413179172801 81.26296593268859 114.41532437583777 H 0.0 **** 0.06
22170 H 67.41301797467577 81.89833862074681 115.54514840747726 H 0.0 **** 0.06
22171 C 202.67383911583 122.98656353631766 167.6841015965436 C 0.0 **** -0.24
22172 H 202.41178145237097 123.79880437310386 167.0063990557844 H 0.0 **** 0.06
22173 H 203.64230386485116 123.19324476871272 168.1408816911761 H 0.0 **** 0.06
22174 H 202.72582234887406 122.05150055586152 167.12685381171087 H 0.0 **** 0.06
22175 H 201.9153556177305 122.9047085288836 168.46325927902356 H 0.0 **** 0.06
22176 C 20.329488829899176 87.82400803275834 216.33735805096956 C 0.0 **** -0.24
22177 H 19.54569340591668 87.80874584109216 215.58050871099482 H 0.0 **** 0.06
22178 H 20.04266078466921 88.50089829221838 217.14243158432632 H 0.0 **** 0.06
22179 H 21.261169321218006 88.16555074547352 215.88850268331208 H 0.0 **** 0.06
22180 H 20.4659847294227 86.81941951796858 216.73803363865002 H 0.0 **** 0.06
22181 C 13.250993107358454 193.3097585090849 185.23027451153217 C 0.0 **** -0.24
22182 H 13.916077504946998 193.32036863024527 184.36618463021176 H 0.0 **** 0.06
22183 H 13.12186822570834 192.2835391566739 185.57603998628957 H 0.0 **** 0.06
22184 H 12.282872557877397 193.72278311697482 184.94805048464752 H 0.0 **** 0.06
22185 H 13.684041189183574 193.91101748083327 186.02925582089676 H 0.0 **** 0.06
22186 C 19.325847034354865 161.90614616894672 75.71056766830604 C 0.0 **** -0.24
22187 H 18.38135792903273 161.72937138743663 75.1955345129624 H 0.0 **** 0.06
22188 H 20.14736881587922 161.83477515198985 74.99766004509864 H 0.0 **** 0.06
22189 H 19.457952593253367 161.15935793503118 76.4935265387356 H 0.0 **** 0.06
22190 H 19.315439540971 162.9014652117753 76.15604027416039 H 0.0 **** 0.06
22191 C 122.84789416195797 89.01212655545042 201.80956045449582 C 0.0 **** -0.24
22192 H 123.3812032875798 89.57366848063695 201.0421940570918 H 0.0 **** 0.06
22193 H 122.67689524671145 89.65390655737197 202.67490429827075 H 0.0 **** 0.06
22194 H 123.44172788202265 88.14898464819822 202.1075280186606 H 0.0 **** 0.06
22195 H 121.8900104908448 88.67439360977795 201.4126228212626 H 0.0 **** 0.06
22196 C 189.58908304693645 40.50496394270796 197.38323748286606 C 0.0 **** -0.24
22197 H 188.79042397755447 40.1351522234136 198.02603069588463 H 0.0 **** 0.06
22198 H 189.93911278845187 39.69830655808309 196.73942293350927 H 0.0 **** 0.06
22199 H 190.4132458083486 40.863165421027105 197.9989618984926 H 0.0 **** 0.06
22200 H 189.21124573261736 41.322668811384574 196.769147216534 H 0.0 **** 0.06
22201 C 160.87938674647262 133.91848845411323 213.70332299945784 C 0.0 **** -0.24
22202 H 161.6833608278914 134.5043107021463 213.25883780253872 H 0.0 **** 0.06
22203 H 160.14258075210398 134.58928571431323 214.1443877191511 H 0.0 **** 0.06
22204 H 161.2894223266932 133.26914960679244 214.47802491116437 H 0.0 **** 0.06
22205 H 160.4045795224946 133.31051990965244 212.93337723385827 H 0.0 **** 0.06
22206 C 56.94850790093557 51.59408532278377 208.68209104738426 C 0.0 **** -0.24
22207 H 56.332958870005484 51.13584125702067 209.45724066598453 H 0.0 **** 0.06
22208 H 57.37456239794659 52.52427505719629 209.05969769666473 H 0.0 **** 0.06
22209 H 56.33337338073602 51.80461653319287 207.80781920717575 H 0.0 **** 0.06
22210 H 57.75182667146163 50.9115242509223 208.4063040668421 H 0.0 **** 0.06
22211 C 214.3904814615741 177.98445122411636 2.4096682509764378 C 0.0 **** -0.24
22212 H 214.05787756895552 177.4322491851533 1.5305654697017133 H 0.0 **** 0.06
22213 H 214.93933595735226 177.31490415237246 3.072748650790345 H 0.0 **** 0.06
22214 H 213.52447496306462 178.38788382198717 2.934412969702038 H 0.0 **** 0.06
22215 H 215.04099750832935 178.8026312945637 2.0997611828505285 H 0.0 **** 0.06
22216 C 79.81341603789132 18.981545734318217 50.79712792912869 C 0.0 **** -0.24
22217 H 80.42648120168728 19.88177772719746 50.785271628557666 H 0.0 **** 0.06
22218 H 79.81793841845935 18.552413074622535 51.7992336371305 H 0.0 **** 0.06
22219 H 80.21689510567477 18.25688315639394 50.09001413068944 H 0.0 **** 0.06
22220 H 78.7910331004682 19.23441188010304 50.51487628374554 H 0.0 **** 0.06
22221 C 191.9378072317236 13.098360754758062 76.44919634833536 C 0.0 **** -0.24
22222 H 191.84255558916163 12.018767834353838 76.33787982429254 H 0.0 **** 0.06
22223 H 192.5437441630226 13.321382191023702 77.32833686011406 H 0.0 **** 0.06
22224 H 190.9488835976826 13.54116587274109 76.56751713783893 H 0.0 **** 0.06
22225 H 192.41782247938437 13.514275800615735 75.5625762510519 H 0.0 **** 0.06
22226 C 96.89888887510675 18.742973274062237 142.20015644260377 C 0.0 **** -0.24
22227 H 96.45831183966534 17.747444693080524 142.1545401869941 H 0.0 **** 0.06
22228 H 97.65277886024744 18.770110357148795 142.98786554537952 H 0.0 **** 0.06
22229 H 96.12159496259518 19.475746134816248 142.41620328927428 H 0.0 **** 0.06
22230 H 97.3647251775409 18.978815495969755 141.24324467770822 H 0.0 **** 0.06
22231 C 212.03875967259503 181.41179383313047 193.77211609183695 C 0.0 **** -0.24
22232 H 212.1081410095074 181.2903085474344 194.85350487801992 H 0.0 **** 0.06
22233 H 211.13288980015483 180.92556533973814 193.40919216902176 H 0.0 **** 0.06
22234 H 212.90981489122697 180.95769344219013 193.2995393461169 H 0.0 **** 0.06
22235 H 212.00568909127412 182.4737879483068 193.52754302817823 H 0.0 **** 0.06
22236 C 123.20697986743319 214.25048750048026 178.4826882200829 C 0.0 **** -0.24
22237 H 122.91682635938047 213.22130345303054 178.2711763394695 H 0.0 **** 0.06
22238 H 123.29906034034373 214.8010015756545 177.54522749303487 H 0.0 **** 0.06
22239 H 124.16313520717715 214.25860981750475 179.00472759526417 H 0.0 **** 0.06
22240 H 122.44696353874097 214.7201543626926 179.1065418435416 H 0.0 **** 0.06
22241 C 108.23637145084889 93.36865424941597 119.39658691362229 C 0.0 **** -0.24
22242 H 108.70345900057983 92.40861611204038 119.61816567286075 H 0.0 **** 0.06
22243 H 107.16565878597727 93.30406621912378 119.59200677923036 H 0.0 **** 0.06
22244 H 108.40086980927295 93.61904720963447 118.34840859013394 H 0.0 **** 0.06
22245 H 108.6762077871761 94.14000020026937 120.02816711028532 H 0.0 **** 0.06
22246 C 128.23180337933258 148.50795090550304 39.00851849561087 C 0.0 **** -0.24
22247 H 127.3068113540924 148.32687276460905 39.55666228117386 H 0.0 **** 0.06
22248 H 128.9139424470044 149.08882221351178 39.63161158749372 H 0.0 **** 0.06
22249 H 128.01077508963385 149.06256621794086 38.0973371397296 H 0.0 **** 0.06
22250 H 128.69470393704097 147.55546647945494 38.752626703021264 H 0.0 **** 0.06
22251 C 3.756101179564581 141.545173496021 157.67738259277513 C 0.0 **** -0.24
22252 H 4.62849258899584 142.131170807668 157.96662214130868 H 0.0 **** 0.06
22253 H 3.319254090195926 141.08177466252556 158.56205896319642 H 0.0 **** 0.06
22254 H 4.056559981547508 140.77108668597094 156.97172669633238 H 0.0 **** 0.06
22255 H 3.020068041063297 142.19869568731423 157.20819380779676 H 0.0 **** 0.06
22256 C 36.36617847045716 150.16450706281188 75.59828663524401 C 0.0 **** -0.24
22257 H 37.433038290059756 150.13914526968438 75.37675099886702 H 0.0 **** 0.06
22258 H 36.08891932396 149.26772940875617 76.1539442375033 H 0.0 **** 0.06
22259 H 35.80222619872086 150.2036425545615 74.66582784191174 H 0.0 **** 0.06
22260 H 36.14053006908796 151.04751101824547 76.19662346269406 H 0.0 **** 0.06
22261 C 214.3783508669345 158.65980765395722 112.34262662839717 C 0.0 **** -0.24
22262 H 214.75908656282408 159.33588808023808 113.1089279682048 H 0.0 **** 0.06
22263 H 215.10972881634387 158.57594028704293 111.53741688307457 H 0.0 **** 0.06
22264 H 213.44285696697665 159.05119668814277 111.94491329352729 H 0.0 **** 0.06
22265 H 214.2049418652481 157.6769079124319 112.78034291444112 H 0.0 **** 0.06
22266 C 63.19288570179495 200.91074952287318 47.74966894884946 C 0.0 **** -0.24
22267 H 63.22298503344521 201.93231626708564 48.12758632190362 H 0.0 **** 0.06
22268 H 64.20474585827674 200.5827045987417 47.508692367888585 H 0.0 **** 0.06
22269 H 62.57585984735283 200.87424183109763 46.851320221077174 H 0.0 **** 0.06
22270 H 62.768802942540546 200.25412671542796 48.508813483907275 H 0.0 **** 0.06
22271 C 184.65866601374228 116.37527595289102 205.19622957339357 C 0.0 **** -0.24
22272 H 185.02849217531977 117.38520411341308 205.01968254299052 H 0.0 **** 0.06
22273 H 185.333695486609 115.65542689397235 204.73254251025827 H 0.0 **** 0.06
22274 H 183.6643545897642 116.27159058967347 204.76421193556814 H 0.0 **** 0.06
22275 H 184.61020886053515 116.18888307692346 206.26928397280784 H 0.0 **** 0.06
22276 C 0.8917179617533861 65.48997038630105 123.34465219223245 C 0.0 **** -0.24
22277 H 0.9672370035768196 65.01992984931374 122.36501609933958 H 0.0 **** 0.06
22278 H -0.08919408298985587 65.95567869948341 123.44894742456239 H 0.0 **** 0.06
22279 H 1.6664287545736443 66.249963453332 123.4438835074485 H 0.0 **** 0.06
22280 H 1.0206534205447326 64.73601375394098 124.12055048681742 H 0.0 **** 0.06
22281 C 180.90341367886833 115.85990393415251 192.4517526621163 C 0.0 **** -0.24
22282 H 180.59047949959913 116.71703513135724 193.04827630174944 H 0.0 **** 0.06
22283 H 180.28934858088587 114.99564882278118 192.70897694116556 H 0.0 **** 0.06
22284 H 181.9495183542296 115.63648567890222 192.65905537121373 H 0.0 **** 0.06
22285 H 180.78301393443468 116.08989078990531 191.39353337038438 H 0.0 **** 0.06
22286 C 160.8847067022043 30.91219717209637 61.348500957888064 C 0.0 **** -0.24
22287 H 160.7119585017483 31.632346977160196 62.14741486486065 H 0.0 **** 0.06
22288 H 161.89179868840046 30.503850849761164 61.438773691607565 H 0.0 **** 0.06
22289 H 160.77932790960398 31.408744106840075 60.38324316326322 H 0.0 **** 0.06
22290 H 160.15682836592453 30.10432289563262 61.423310161958426 H 0.0 **** 0.06
22291 C 101.69305084959815 34.35548089606209 16.207263371551264 C 0.0 **** -0.24
22292 H 100.69328166572284 34.41729007752912 15.778083535787289 H 0.0 **** 0.06
22293 H 101.61751206874898 34.17263938812792 17.278804317690557 H 0.0 **** 0.06
22294 H 102.22005252895705 35.294283980729745 16.03492606754716 H 0.0 **** 0.06
22295 H 102.24085057009101 33.539206158801164 15.736528675438365 H 0.0 **** 0.06
22296 C 181.90151570309433 39.47548424218053 74.07905289793746 C 0.0 **** -0.24
22297 H 182.29815906438807 38.556453945962744 73.64841792125048 H 0.0 **** 0.06
22298 H 182.18704365384198 40.321730095159865 73.45345086937402 H 0.0 **** 0.06
22299 H 182.30536127780465 39.61151322362383 75.08210573702718 H 0.0 **** 0.06
22300 H 180.8139618556551 39.41250760515612 74.13063516973637 H 0.0 **** 0.06
22301 C 160.55823478681089 33.794184844892484 120.17420465508025 C 0.0 **** -0.24
22302 H 160.20046986199077 34.15578687406776 121.13845170582624 H 0.0 **** 0.06
22303 H 160.34367153731097 34.5376900083005 119.40562684826443 H 0.0 **** 0.06
22304 H 160.05482942578385 32.85947971999542 119.92712873713486 H 0.0 **** 0.06
22305 H 161.6341952050978 33.62516415936733 120.22581218066983 H 0.0 **** 0.06
22306 C 118.34572544722681 2.709521003691634 186.0046331645138 C 0.0 **** -0.24
22307 H 118.7602685339067 2.2380340910662824 186.8954099318057 H 0.0 **** 0.06
22308 H 118.88145026275936 3.637426256294134 185.8025022321475 H 0.0 **** 0.06
22309 H 117.28981472385959 2.9262164979580234 186.16475728587017 H 0.0 **** 0.06
22310 H 118.45245054622774 2.03534558488019 185.15421949365407 H 0.0 **** 0.06
22311 C 54.61350688372414 0.024966986023002846 183.83515919628618 C 0.0 **** -0.24
22312 H 55.05048494090181 0.06478677864686233 182.83716435383815 H 0.0 **** 0.06
22313 H 54.09228823044049 -0.9236124290884504 183.96516823428402 H 0.0 **** 0.06
22314 H 53.90833622524809 0.8474283073593085 183.95599734221122 H 0.0 **** 0.06
22315 H 55.40365595352051 0.11100211662949278 184.58112939828487 H 0.0 **** 0.06
22316 C 76.82046127614734 83.05771971349333 134.6005828490658 C 0.0 **** -0.24
22317 H 77.02203072176337 82.84458547759112 133.55057299159483 H 0.0 **** 0.06
22318 H 76.69531871109228 82.12027504193458 135.1439676026477 H 0.0 **** 0.06
22319 H 75.90874325192425 83.64944189859057 134.6830039481522 H 0.0 **** 0.06
22320 H 77.65495809077578 83.61503940685975 135.02470540391857 H 0.0 **** 0.06
22321 C 25.51167128958896 59.07306373032043 79.9624193255293 C 0.0 **** -0.24
22322 H 25.13491222197638 59.41020919455099 78.99694396503163 H 0.0 **** 0.06
22323 H 26.358494501609485 59.693632532197626 80.25727855339228 H 0.0 **** 0.06
22324 H 25.83103707253929 58.03433812439917 79.88447235241792 H 0.0 **** 0.06
22325 H 24.722519527455376 59.15586134120065 80.70966639764028 H 0.0 **** 0.06
22326 C 96.1858013334565 214.07010981502032 20.66207352938916 C 0.0 **** -0.24
22327 H 96.9505928794331 214.39264705949154 19.955537080038496 H 0.0 **** 0.06
22328 H 96.66304674822534 213.61142999821124 21.528813858554784 H 0.0 **** 0.06
22329 H 95.53054773145759 213.34414024590106 20.181457231064897 H 0.0 **** 0.06
22330 H 95.60096801930983 214.93239491932238 20.98289518830248 H 0.0 **** 0.06
22331 C 50.02491040023091 57.08230670904783 126.69008506636156 C 0.0 **** -0.24
22332 H 50.21178796256464 56.008503972982055 126.72280529509989 H 0.0 **** 0.06
22333 H 49.06787802253655 57.29907481577527 127.16432840852737 H 0.0 **** 0.06
22334 H 50.00046470989582 57.41454684578122 125.65188997450205 H 0.0 **** 0.06
22335 H 50.82085000146327 57.605453125495785 127.22061604975933 H 0.0 **** 0.06
22336 C 194.0250738109258 179.65936107759896 28.664221649660703 C 0.0 **** -0.24
22337 H 193.19024968185516 180.35378671914606 28.572882565188706 H 0.0 **** 0.06
22338 H 194.66718565285277 179.96966374313223 29.488932984466118 H 0.0 **** 0.06
22339 H 194.5991996875971 179.65857835518386 27.737367825416158 H 0.0 **** 0.06
22340 H 193.64432857911032 178.65587569964967 28.85711882242873 H 0.0 **** 0.06
22341 C 148.97230565457056 91.28493859442749 199.32317684129697 C 0.0 **** -0.24
22342 H 149.9720494313844 91.48465885399592 199.70995759326297 H 0.0 **** 0.06
22343 H 148.5486847939207 92.20630841693666 198.9231166474244 H 0.0 **** 0.06
22344 H 148.3391070641414 90.91314885938864 200.12836319508816 H 0.0 **** 0.06
22345 H 149.03190201565798 90.53803515965289 198.53264876472744 H 0.0 **** 0.06
22346 C 129.61534118158664 191.1446341968412 46.30491128402531 C 0.0 **** -0.24
22347 H 130.31648795465645 191.95142664954994 46.08949473064581 H 0.0 **** 0.06
22348 H 128.83751972605017 191.12608414800718 45.54206214961471 H 0.0 **** 0.06
22349 H 129.163763785465 191.30984799410203 47.28278826110241 H 0.0 **** 0.06
22350 H 130.14702106179595 190.1931971407359 46.3063832848766 H 0.0 **** 0.06
22351 C 168.94437566651564 156.04760205545995 59.22574007936373 C 0.0 **** -0.24
22352 H 168.58012811433105 156.68817169918015 58.423490514926925 H 0.0 **** 0.06
22353 H 168.2878135828731 156.14201969425216 60.091631356890105 H 0.0 **** 0.06
22354 H 169.95458871272936 156.34914918995526 59.501007311092394 H 0.0 **** 0.06
22355 H 168.95376524561277 155.01128541444592 58.888054143162094 H 0.0 **** 0.06
22356 C 177.33739030923937 26.934177079063844 13.956817971635104 C 0.0 **** -0.24
22357 H 177.61061843387486 27.866519037043602 13.461930091125794 H 0.0 **** 0.06
22358 H 177.92396952650495 26.11565031086714 13.538926959161728 H 0.0 **** 0.06
22359 H 176.27684814337957 26.739106355803727 13.802821747165467 H 0.0 **** 0.06
22360 H 177.54008482233496 27.018205272935674 15.024806428758353 H 0.0 **** 0.06
22361 C 3.439386034552342 70.45454616838299 58.87494195294937 C 0.0 **** -0.24
22362 H 2.6285189651795804 69.86923775453943 58.44241591055493 H 0.0 **** 0.06
22363 H 4.160332960308267 70.70870091189443 58.09642857932687 H 0.0 **** 0.06
22364 H 3.934139700956621 69.87079068278535 59.6513789976745 H 0.0 **** 0.06
22365 H 3.0358711953987836 71.3691487241083 59.30913554106368 H 0.0 **** 0.06
22366 C 207.1454781747606 125.78973287700082 189.11273409331972 C 0.0 **** -0.24
22367 H 208.0352248381223 125.61042018873239 188.50925752413784 H 0.0 **** 0.06
22368 H 207.32258804504886 125.44690491268797 190.13221200854088 H 0.0 **** 0.06
22369 H 206.30194226368388 125.24730846947064 188.68739535588492 H 0.0 **** 0.06
22370 H 206.92356767648113 126.85673242428776 189.1217800104295 H 0.0 **** 0.06
22371 C 15.942413420526265 194.0021212717631 70.03831947205128 C 0.0 **** -0.24
22372 H 15.018752751291743 193.80531304890405 69.49447885161749 H 0.0 **** 0.06
22373 H 15.878963919894375 193.5598578711843 71.03328852040676 H 0.0 **** 0.06
22374 H 16.08983177648514 195.07801322583842 70.12788762772442 H 0.0 **** 0.06
22375 H 16.78179262448532 193.5642957117913 69.49856725221213 H 0.0 **** 0.06
22376 C 167.5040203031498 73.44914523406364 84.96893952389352 C 0.0 **** -0.24
22377 H 166.58815262847702 73.34277548602607 85.54967612826844 H 0.0 **** 0.06
22378 H 167.4716761260562 72.77618976596993 84.11195064826866 H 0.0 **** 0.06
22379 H 168.3611844427854 73.19989700330639 85.59530053175085 H 0.0 **** 0.06
22380 H 167.5960045659296 74.47848998735292 84.62070909611639 H 0.0 **** 0.06
22381 C 205.70146325480516 69.52539562244826 210.25625586690808 C 0.0 **** -0.24
22382 H 205.05505276479332 68.90066980206282 210.87314586863585 H 0.0 **** 0.06
22383 H 205.2083383083429 69.72861122360968 209.30537030460414 H 0.0 **** 0.06
22384 H 206.6413285999478 69.00405923779132 210.07386165417037 H 0.0 **** 0.06
22385 H 205.90052157139104 70.46428344994706 210.77166885501168 H 0.0 **** 0.06
22386 C 135.9854350198881 9.417143028615897 29.701222521546953 C 0.0 **** -0.24
22387 H 135.9976818179536 9.356561934956858 28.612282619971978 H 0.0 **** 0.06
22388 H 135.64175736454098 8.468571388041141 30.114011392366194 H 0.0 **** 0.06
22389 H 135.3108324083741 10.214667388272176 30.012600665842598 H 0.0 **** 0.06
22390 H 136.9910304544295 9.62896908472186 30.06466533962393 H 0.0 **** 0.06
22391 C 180.424289287984 66.19604776512081 12.247867415493474 C 0.0 **** -0.24
22392 H 180.7687717972412 66.17428709241918 11.21473219510267 H 0.0 **** 0.06
22393 H 179.4544299419355 65.70368630977447 12.31743162443584 H 0.0 **** 0.06
22394 H 180.33019633712797 67.23091716017868 12.577723440279698 H 0.0 **** 0.06
22395 H 181.1424508375835 65.67630017686207 12.882120181339829 H 0.0 **** 0.06
22396 C 61.04337699449208 136.6620489451219 65.97837203089932 C 0.0 **** -0.24
22397 H 60.451003032057486 137.26354845823795 66.66749723906639 H 0.0 **** 0.06
22398 H 61.510049107946486 135.84108896885385 66.52201159806305 H 0.0 **** 0.06
22399 H 61.81479838355135 137.2836598568431 65.52469479074901 H 0.0 **** 0.06
22400 H 60.39490754968115 136.2603666096 65.19881648959483 H 0.0 **** 0.06
22401 C 58.1919216830473 79.17030507599299 173.39653869455327 C 0.0 **** -0.24
22402 H 57.74868785617696 79.90161927392234 174.0712537665769 H 0.0 **** 0.06
22403 H 58.64945432756497 79.6851988847319 172.55148876149744 H 0.0 **** 0.06
22404 H 57.417139147947296 78.49462942440931 173.03385621874753 H 0.0 **** 0.06
22405 H 58.95174418676825 78.5986986421737 173.92891635555907 H 0.0 **** 0.06
22406 C 212.41872423949113 132.5661665568485 4.718791121483349 C 0.0 **** -0.24
22407 H 211.7849820821287 132.82691923578938 3.870706179946694 H 0.0 **** 0.06
22408 H 213.0120786211325 131.68619718783765 4.4710985330464155 H 0.0 **** 0.06
22409 H 211.79493065135557 132.35187202476772 5.585989790850817 H 0.0 **** 0.06
22410 H 213.08243390900248 133.40093998301512 4.946281682354481 H 0.0 **** 0.06
22411 C 71.34784638646545 172.08244907631422 195.9730760591943 C 0.0 **** -0.24
22412 H 70.7633369713214 171.20180584742712 196.23822766354266 H 0.0 **** 0.06
22413 H 71.85815184001001 172.45977439199228 196.8582399176754 H 0.0 **** 0.06
22414 H 70.68506963681665 172.852943933601 195.57884922616813 H 0.0 **** 0.06
22415 H 72.08386654308237 171.8151662741994 195.2149709439286 H 0.0 **** 0.06
22416 C 117.89606591771873 5.043096466409047 47.292217447318805 C 0.0 **** -0.24
22417 H 117.84384549852406 4.8830637537474715 48.36854856445966 H 0.0 **** 0.06
22418 H 117.2817685472023 5.901321540637255 47.02129755923869 H 0.0 **** 0.06
22419 H 117.53052760402348 4.155701954707233 46.77487532732334 H 0.0 **** 0.06
22420 H 118.9306446906735 5.230838735154258 47.00343767854791 H 0.0 **** 0.06
22421 C 135.36801705035646 57.753504589787156 90.72017887512375 C 0.0 **** -0.24
22422 H 134.6649719493169 58.404392861096994 90.19917292275251 H 0.0 **** 0.06
22423 H 135.05238327127728 56.71568180246243 90.61088420238762 H 0.0 **** 0.06
22424 H 135.38946053306364 58.01728710800319 91.7781070940005 H 0.0 **** 0.06
22425 H 136.36285333884365 57.87902562446419 90.29382884191052 H 0.0 **** 0.06
22426 C 175.43727979500238 192.55200638328273 212.0589582818147 C 0.0 **** -0.24
22427 H 174.78893028483856 193.4017885180429 212.27445859910114 H 0.0 **** 0.06
22428 H 175.11632458938223 191.69201253110214 212.64654696685227 H 0.0 **** 0.06
22429 H 176.46607262679885 192.80481256257264 212.31767917635693 H 0.0 **** 0.06
22430 H 175.3785149982064 192.31001929518078 210.99820097238683 H 0.0 **** 0.06
22431 C 28.70396617560594 117.00856587633403 92.10929539650654 C 0.0 **** -0.24
22432 H 27.975036377348403 117.50176342948397 92.7524817321031 H 0.0 **** 0.06
22433 H 29.50423019058354 116.5906475175273 92.72129205830576 H 0.0 **** 0.06
22434 H 29.122086182001922 117.73385735553971 91.41069602573431 H 0.0 **** 0.06
22435 H 28.215594710686105 116.20766791520713 91.55402347426134 H 0.0 **** 0.06
22436 C 116.49865535171843 168.3325580249845 82.32841785473227 C 0.0 **** -0.24
22437 H 116.6654661857833 167.81204512861677 81.38612778116811 H 0.0 **** 0.06
22438 H 115.44150633850869 168.57986264890457 82.42490890281334 H 0.0 **** 0.06
22439 H 117.08960360808415 169.24868927868317 82.34682529106101 H 0.0 **** 0.06
22440 H 116.79906571825184 167.6906415547233 83.15678190520623 H 0.0 **** 0.06
22441 C 187.6252163814276 157.57462243638116 62.139158932599656 C 0.0 **** -0.24
22442 H 187.15957695180748 157.88473477458365 61.20380103733325 H 0.0 **** 0.06
22443 H 186.85116310283246 157.28212625118925 62.84979573686131 H 0.0 **** 0.06
22444 H 188.20270161053574 158.4027812833064 62.549931218097726 H 0.0 **** 0.06
22445 H 188.28605209435773 156.7278547994951 61.95274307348261 H 0.0 **** 0.06
22446 C 131.99671612358156 195.22800131507373 32.91066806036207 C 0.0 **** -0.24
22447 H 131.8458633026728 195.40624178161298 33.97577975131304 H 0.0 **** 0.06
22448 H 133.05073611131792 195.36199437171598 32.666647838018264 H 0.0 **** 0.06
22449 H 131.39821564645223 195.9348378383135 32.33656577567376 H 0.0 **** 0.06
22450 H 131.6925925830954 194.2107351168738 32.66675317975674 H 0.0 **** 0.06
22451 C 120.70856065239364 100.09268241271589 201.6867881146345 C 0.0 **** -0.24
22452 H 121.15202043229094 99.1010232573902 201.58769366579185 H 0.0 **** 0.06
22453 H 120.25790825322021 100.19157154764228 202.67338400920093 H 0.0 **** 0.06
22454 H 119.94313217525358 100.22566725856477 200.9223691127624 H 0.0 **** 0.06
22455 H 121.48217029114092 100.849427179296 201.56176172101053 H 0.0 **** 0.06
22456 C 23.211057026688948 57.583026994805806 54.38311271042278 C 0.0 **** -0.24
22457 H 23.602523618424783 58.56499834799291 54.117320861985746 H 0.0 **** 0.06
22458 H 23.229646949575766 56.93539903856583 53.506610810607754 H 0.0 **** 0.06
22459 H 22.186119102803133 57.684533383446166 54.73991495539791 H 0.0 **** 0.06
22460 H 23.828394760123345 57.148228289894405 55.169968711233025 H 0.0 **** 0.06
22461 C 76.90115690130473 201.2094769379259 209.94119584501436 C 0.0 **** -0.24
22462 H 77.41704130291815 201.67415694656808 209.09982675716526 H 0.0 **** 0.06
22463 H 77.63494701596015 200.8355419735611 210.6549176671976 H 0.0 **** 0.06
22464 H 76.29051761913153 200.38195122151703 209.579834536766 H 0.0 **** 0.06
22465 H 76.2625176003613 201.94660976996946 210.42781290852122 H 0.0 **** 0.06
22466 C 127.89805733199923 53.34692137281563 6.429328793637296 C 0.0 **** -0.24
22467 H 127.9365220337982 52.32996854765287 6.819694716866223 H 0.0 **** 0.06
22468 H 127.13214701771129 53.91107621988458 6.962740321389447 H 0.0 **** 0.06
22469 H 127.65602028130051 53.320079882309045 5.36756765649983 H 0.0 **** 0.06
22470 H 128.8672248179741 53.82711370988167 6.569677876478636 H 0.0 **** 0.06
22471 C 92.42580880117227 183.8599513028791 54.9117168365657 C 0.0 **** -0.24
22472 H 93.17428980178163 183.70379033103902 55.68839184885438 H 0.0 **** 0.06
22473 H 91.9326082114912 184.81939592337244 55.070302300065464 H 0.0 **** 0.06
22474 H 91.6869872051336 183.05971884947004 54.95396378795185 H 0.0 **** 0.06
22475 H 92.90978464156343 183.85598216906135 53.935193532076454 H 0.0 **** 0.06
22476 C 176.19516428009075 115.93347353369602 32.11833242330749 C 0.0 **** -0.24
22477 H 176.6343582053572 116.86778433985516 32.46808826827754 H 0.0 **** 0.06
22478 H 175.1080937283225 116.0096320860013 32.14661016672494 H 0.0 **** 0.06
22479 H 176.51894388217457 115.11604052451715 32.762764099409 H 0.0 **** 0.06
22480 H 176.52019513271662 115.74012464354355 31.096041227867147 H 0.0 **** 0.06
22481 C 113.27205930834499 33.66296498824657 86.62767926315884 C 0.0 **** -0.24
22482 H 112.6481588018827 34.536963617072516 86.43764844792513 H 0.0 **** 0.06
22483 H 112.96555368998229 32.84884950041081 85.97106414670795 H 0.0 **** 0.06
22484 H 113.15764984576562 33.35526952955571 87.66702863402493 H 0.0 **** 0.06
22485 H 114.315203225589 33.91324893360799 86.4352868354252 H 0.0 **** 0.06
22486 C 177.6836280398686 180.6894430557311 48.81038605574335 C 0.0 **** -0.24
22487 H 177.9877334160013 181.27593066806926 47.94305604489156 H 0.0 **** 0.06
22488 H 178.48173899696684 179.99638572751547 49.07820799749901 H 0.0 **** 0.06
22489 H 176.77949646737528 180.13008161721675 48.571798538972175 H 0.0 **** 0.06
22490 H 177.48636555840847 181.35820916131618 49.64901742240657 H 0.0 **** 0.06
22491 C 64.50020213608698 108.43039397897 16.198786972412336 C 0.0 **** -0.24
22492 H 63.53216719551625 108.82166361006428 16.50999357284718 H 0.0 **** 0.06
22493 H 65.28620419486245 109.12494362926604 16.497863400239027 H 0.0 **** 0.06
22494 H 64.51280376823757 108.31348844206197 15.114599511193717 H 0.0 **** 0.06
22495 H 64.67035300243731 107.46346843649418 16.670563176735584 H 0.0 **** 0.06
22496 C 6.891332618673175 145.6693713368079 131.39101427783748 C 0.0 **** -0.24
22497 H 7.419217764396095 145.18326751629093 130.57022654974872 H 0.0 **** 0.06
22498 H 7.104841120348922 146.73862260102624 131.37708564269445 H 0.0 **** 0.06
22499 H 7.22315769969444 145.2445522633816 132.33804648217165 H 0.0 **** 0.06
22500 H 5.818817438887564 145.51108983681354 131.27635260549863 H 0.0 **** 0.06
22501 C 157.49811811230677 206.90771988305568 0.8678920377746593 C 0.0 **** -0.24
22502 H 158.0536729440015 206.1089334778636 0.37620794154848625 H 0.0 **** 0.06
22503 H 157.0023435586317 206.51191621019308 1.7547365537053636 H 0.0 **** 0.06
22504 H 156.75072878033103 207.3065349288408 0.18149791347922672 H 0.0 **** 0.06
22505 H 158.18518257564608 207.7018610384895 1.1593099118330201 H 0.0 **** 0.06
22506 C 179.70693036748185 55.151947090703786 65.97855723728497 C 0.0 **** -0.24
22507 H 180.7852539394238 55.02717850723461 66.07153138762868 H 0.0 **** 0.06
22508 H 179.23391528542632 54.17295418163961 65.89286723366769 H 0.0 **** 0.06
22509 H 179.48464999524978 55.74178401182466 65.08896126756463 H 0.0 **** 0.06
22510 H 179.32256962031113 55.6653523757318 66.85915018711103 H 0.0 **** 0.06
22511 C 145.8645420348975 145.45569043903816 200.29719725743158 C 0.0 **** -0.24
22512 H 146.2722144637591 146.46280460844872 200.20179598818794 H 0.0 **** 0.06
22513 H 144.82258573496233 145.51522462010064 200.6140961578194 H 0.0 **** 0.06
22514 H 146.4396438246996 144.899017049164 201.03671790969852 H 0.0 **** 0.06
22515 H 145.92300130310616 144.94889201896615 199.33433849341947 H 0.0 **** 0.06
22516 C 5.931260041934877 60.443898008063286 4.723844496224281 C 0.0 **** -0.24
22517 H 6.657160516031638 59.898189323511616 4.120257977185098 H 0.0 **** 0.06
22518 H 5.3882778248514285 61.14639527260252 4.091651455948941 H 0.0 **** 0.06
22519 H 6.450278822071937 60.98887035977086 5.511594937965036 H 0.0 **** 0.06
22520 H 5.229476753728136 59.74019712329874 5.170772238251402 H 0.0 **** 0.06
22521 C 30.58296372937184 197.63516458811495 197.45552715111288 C 0.0 **** -0.24
22522 H 30.852554441118244 198.68894383180586 197.52622574234087 H 0.0 **** 0.06
22523 H 31.478965661443155 197.0439255773877 197.2602884581397 H 0.0 **** 0.06
22524 H 29.871798060649056 197.49601101753524 196.6411133638027 H 0.0 **** 0.06
22525 H 30.130945852574456 197.3120187625807 198.39270948843443 H 0.0 **** 0.06
22526 C 28.919396364226316 8.42627937305636 54.09376239516031 C 0.0 **** -0.24
22527 H 28.86843231054202 8.321993495442754 55.177352838918466 H 0.0 **** 0.06
22528 H 29.31253363429697 7.508005751020264 53.65763652262595 H 0.0 **** 0.06
22529 H 29.575401248884077 9.259213617938983 53.83999423571828 H 0.0 **** 0.06
22530 H 27.920447047944705 8.61800188880298 53.70014849510822 H 0.0 **** 0.06
22531 C 5.098415540079827 130.15669217822892 100.07899501211163 C 0.0 **** -0.24
22532 H 4.787503593252097 130.32872865314988 99.04836396494206 H 0.0 **** 0.06
22533 H 5.929478742675599 129.45100462335478 100.09474869483192 H 0.0 **** 0.06
22534 H 4.262984897836617 129.74823672157976 100.64717976227503 H 0.0 **** 0.06
22535 H 5.413658569381937 131.09942292677033 100.52490720692045 H 0.0 **** 0.06
22536 C 104.14072891450621 147.28146123949563 140.33356890040784 C 0.0 **** -0.24
22537 H 104.34900208717755 146.3018933109007 139.90384912335446 H 0.0 **** 0.06
22538 H 103.55943073623291 147.16032820902683 141.24779937383192 H 0.0 **** 0.06
22539 H 103.57302312121055 147.87715640820983 139.61895184904085 H 0.0 **** 0.06
22540 H 105.07913232291776 147.78506140220594 140.56240733702924 H 0.0 **** 0.06
22541 C 110.66541034867156 114.96432622811152 64.26981745854592 C 0.0 **** -0.24
22542 H 110.55491219290742 114.6467943514425 63.23256830071327 H 0.0 **** 0.06
22543 H 110.20623964276386 114.22551634850801 64.92599529023468 H 0.0 **** 0.06
22544 H 110.1762270540698 115.92855417851258 64.40769892818702 H 0.0 **** 0.06
22545 H 111.72440001160889 115.05694210593977 64.51083266555693 H 0.0 **** 0.06
22546 C 116.6603633382788 51.13277874852359 16.14812509387562 C 0.0 **** -0.24
22547 H 117.41059338858726 51.668880779076346 15.567012696490593 H 0.0 **** 0.06
22548 H 117.13776880558426 50.650005663078844 17.00067790739257 H 0.0 **** 0.06
22549 H 116.18593596552778 50.377771770536356 15.520499980006988 H 0.0 **** 0.06
22550 H 115.90644439033694 51.835549674837 16.502793081119123 H 0.0 **** 0.06
22551 C 186.38736708603682 118.94840000960663 94.67037029873536 C 0.0 **** -0.24
22552 H 185.57152568435072 119.6586866157986 94.80094160082446 H 0.0 **** 0.06
22553 H 186.16865779583375 118.03785383263131 95.2289766514776 H 0.0 **** 0.06
22554 H 187.31437410662795 119.38766203466393 95.03790938713412 H 0.0 **** 0.06
22555 H 186.49361969408605 118.70812416282583 93.61234523140335 H 0.0 **** 0.06
22556 C 148.58708012028046 73.1480086617215 201.82158692872986 C 0.0 **** -0.24
22557 H 148.36906649442187 74.07252835453845 201.28726724215662 H 0.0 **** 0.06
22558 H 149.66656849152798 73.00075193339508 201.86757024931592 H 0.0 **** 0.06
22559 H 148.1271460453155 72.30960276646447 201.29815465617443 H 0.0 **** 0.06
22560 H 148.18473994199894 73.20996235084037 202.8325168229864 H 0.0 **** 0.06
22561 C 146.16149398491478 118.07590430782106 64.20824993295531 C 0.0 **** -0.24
22562 H 145.93780592172897 117.16760120624302 64.76720364496097 H 0.0 **** 0.06
22563 H 146.6263648956578 118.8056373022509 64.87207969267621 H 0.0 **** 0.06
22564 H 145.2384234927144 118.48952102492227 63.802593418746056 H 0.0 **** 0.06
22565 H 146.8443457039242 117.84069410961415 63.39214465708935 H 0.0 **** 0.06
22566 C 9.591601156946155 17.05061644958775 143.39891748679185 C 0.0 **** -0.24
22567 H 9.643766276928488 17.407108367166586 144.42803626663203 H 0.0 **** 0.06
22568 H 9.74720957713464 17.887322016783685 142.71628509164145 H 0.0 **** 0.06
22569 H 8.611736921960528 16.609323648191378 143.21645685499857 H 0.0 **** 0.06
22570 H 10.364553421640181 16.30012460019259 143.23540324960982 H 0.0 **** 0.06
22571 C 161.54724822207498 17.974672199041663 2.2539796041590137 C 0.0 **** -0.24
22572 H 160.60173130171896 17.49712962159151 2.5108491731902802 H 0.0 **** 0.06
22573 H 161.98700068842223 17.47111361190565 1.3932237443969484 H 0.0 **** 0.06
22574 H 162.22921142568208 17.909636347530125 3.1024828058281457 H 0.0 **** 0.06
22575 H 161.3701078008938 19.02235812792614 2.0106719710954053 H 0.0 **** 0.06
22576 C 198.93795673781156 129.26419019141184 82.2886110584093 C 0.0 **** -0.24
22577 H 198.8404059605517 129.93360889147192 83.1428531634728 H 0.0 **** 0.06
22578 H 199.32496842679478 129.81889602345007 81.43321667723119 H 0.0 **** 0.06
22579 H 197.96142427327865 128.8475088767246 82.04008906821012 H 0.0 **** 0.06
22580 H 199.62539500557028 128.45522259670145 82.53754922361459 H 0.0 **** 0.06
22581 C 190.05043083192072 21.609821426652587 31.826245291741728 C 0.0 **** -0.24
22582 H 190.08120464575805 20.58454960557178 31.457865328422514 H 0.0 **** 0.06
22583 H 190.1981088789101 22.298850372460024 30.994385056659283 H 0.0 **** 0.06
22584 H 190.84187668861668 21.754427784814183 32.56271499280413 H 0.0 **** 0.06
22585 H 189.08294563984896 21.80186446906403 32.29013645317397 H 0.0 **** 0.06
22586 C 105.00687239674657 129.91658973502962 33.50458418960852 C 0.0 **** -0.24
22587 H 106.06404217187138 129.65296953937838 33.533851804055416 H 0.0 **** 0.06
22588 H 104.89452266598907 130.98754659611666 33.67213737101184 H 0.0 **** 0.06
22589 H 104.47474818871207 129.36902092758112 34.282670540947606 H 0.0 **** 0.06
22590 H 104.59468688692631 129.65552858626137 32.529935885430206 H 0.0 **** 0.06
22591 C 152.24293750282249 29.1218786203724 20.454444799935374 C 0.0 **** -0.24
22592 H 152.61582931483497 28.955915644679038 21.463972453752177 H 0.0 **** 0.06
22593 H 151.65232358948492 28.261136811388326 20.138128647416863 H 0.0 **** 0.06
22594 H 153.0840667262612 29.255918663602642 19.773370608891867 H 0.0 **** 0.06
22595 H 151.6185005297333 30.015405171273926 20.440519536611703 H 0.0 **** 0.06
22596 C 27.454575269152258 91.41936989521277 46.412617991988895 C 0.0 **** -0.24
22597 H 28.50591940638573 91.25743131264242 46.174736639607175 H 0.0 **** 0.06
22598 H 26.950203018949054 90.45725841692779 46.50494502612315 H 0.0 **** 0.06
22599 H 26.987529525702314 92.00008082168692 45.61805131374673 H 0.0 **** 0.06
22600 H 27.3754251987383 91.96291100419599 47.35427423033141 H 0.0 **** 0.06
22601 C 31.670161527410016 164.73367045747685 171.79851120311224 C 0.0 **** -0.24
22602 H 30.931294681616464 164.32523619682837 171.10990438091903 H 0.0 **** 0.06
22603 H 31.724537615247186 164.10334258843687 172.68711189261802 H 0.0 **** 0.06
22604 H 31.38050102980219 165.74392238336725 172.08632532064803 H 0.0 **** 0.06
22605 H 32.644738145956296 164.7591390830865 171.31145690118535 H 0.0 **** 0.06
22606 C 48.04851387238041 30.265853279902615 59.26416303488526 C 0.0 **** -0.24
22607 H 49.12853604819158 30.291426720611838 59.41002337974351 H 0.0 **** 0.06
22608 H 47.824756733670824 29.855021140613133 58.27909306189437 H 0.0 **** 0.06
22609 H 47.648847105112026 31.27739735324033 59.33456329237143 H 0.0 **** 0.06
22610 H 47.59251097942399 29.640422433217168 60.031588440577224 H 0.0 **** 0.06
22611 C 197.75478994471388 66.8768485774927 215.13312400824748 C 0.0 **** -0.24
22612 H 197.47986633491558 67.2387788498985 214.142404762785 H 0.0 **** 0.06
22613 H 198.7388630322152 67.26219121724131 215.4004166363431 H 0.0 **** 0.06
22614 H 197.77990849981745 65.7874199797522 215.12716452652688 H 0.0 **** 0.06
22615 H 197.0196602032372 67.21950173534049 215.86241012500722 H 0.0 **** 0.06
22616 C 35.92724382376409 3.582301228924848 73.70346654498952 C 0.0 **** -0.24
22617 H 36.124805017744364 3.088166136703876 74.65464697963172 H 0.0 **** 0.06
22618 H 35.90693456502771 2.8403238573299063 72.90500661667151 H 0.0 **** 0.06
22619 H 36.71136649394231 4.311451895041955 73.50318909805527 H 0.0 **** 0.06
22620 H 34.962885189883565 4.090508005814797 73.75176225986216 H 0.0 **** 0.06
22621 C 163.30151467883894 2.349238878589972 111.8026541772522 C 0.0 **** -0.24
22622 H 162.54334614215628 2.957673835600559 111.31028389126432 H 0.0 **** 0.06
22623 H 164.13883052889832 2.1915890694002016 111.12198255211403 H 0.0 **** 0.06
22624 H 162.8714898225852 1.387036369526463 112.07982034094427 H 0.0 **** 0.06
22625 H 163.65211535309874 2.861605071864858 112.69837800861593 H 0.0 **** 0.06
22626 C 1.0566764663341814 18.746830505057474 4.411213223928485 C 0.0 **** -0.24
22627 H 2.0192210115608304 18.292073847948416 4.646877243910637 H 0.0 **** 0.06
22628 H 1.2192244704096424 19.694684970539882 3.8983251348338115 H 0.0 **** 0.06
22629 H 0.5031690199441528 18.922076650862337 5.333892169814959 H 0.0 **** 0.06
22630 H 0.48650227486439235 18.07688906035571 3.766965598008113 H 0.0 **** 0.06
22631 C 105.34590617195006 202.18943757174065 189.72700680763847 C 0.0 **** -0.24
22632 H 105.3235126179798 202.92212256996194 190.53408262124736 H 0.0 **** 0.06
22633 H 105.20509014432012 201.19046447223414 190.13965766334735 H 0.0 **** 0.06
22634 H 106.30764186487094 202.23994618191986 189.2167760077361 H 0.0 **** 0.06
22635 H 104.54640177954495 202.40561359211836 189.01845208887755 H 0.0 **** 0.06
22636 C 34.615724323285946 145.7743100040908 62.645080773295945 C 0.0 **** -0.24
22637 H 33.79875915784079 145.06758647519348 62.501070701461146 H 0.0 **** 0.06
22638 H 34.60381477326071 146.51166103946684 61.841699936243515 H 0.0 **** 0.06
22639 H 35.56533916817229 145.2398698341671 62.63269213299478 H 0.0 **** 0.06
22640 H 34.49500015100308 146.27870111278065 63.60356990380558 H 0.0 **** 0.06
22641 C 133.5745010242028 101.63406694917488 118.69890963149366 C 0.0 **** -0.24
22642 H 133.919802537115 101.59934495192304 117.66528378190931 H 0.0 **** 0.06
22643 H 134.0538988016899 102.46625306355973 119.21318305790486 H 0.0 **** 0.06
22644 H 133.83157340421872 100.69939692576169 119.19867247363656 H 0.0 **** 0.06
22645 H 132.4930208171051 101.77001437881181 118.71579154965487 H 0.0 **** 0.06
22646 C 102.70167514847982 174.14283345673454 53.05921573049042 C 0.0 **** -0.24
22647 H 102.40031442485717 173.3581647478888 52.365182683714636 H 0.0 **** 0.06
22648 H 103.76955359889267 174.05672803579154 53.262566721897855 H 0.0 **** 0.06
22649 H 102.14475325732808 174.0373530586008 53.98938937151391 H 0.0 **** 0.06
22650 H 102.49154957257115 175.11806968928772 52.61889801912753 H 0.0 **** 0.06
22651 C 24.697768466544005 29.977239654779467 137.69498588891338 C 0.0 **** -0.24
22652 H 23.985578335344584 29.42733419169565 137.0797726451678 H 0.0 **** 0.06
22653 H 24.361896262704207 29.970109685415053 138.7328168935905 H 0.0 **** 0.06
22654 H 24.76282931369836 31.006429980560284 137.34094703776196 H 0.0 **** 0.06
22655 H 25.677593065055504 29.5067681375849 137.62613524576614 H 0.0 **** 0.06
22656 C 116.38933143332605 50.294222599615296 91.5551619192441 C 0.0 **** -0.24
22657 H 115.32682413005699 50.06435223277168 91.47819455894434 H 0.0 **** 0.06
22658 H 116.96587420768816 49.371663720640214 91.48794823270784 H 0.0 **** 0.06
22659 H 116.58797872479141 50.7776214854087 92.51233950369424 H 0.0 **** 0.06
22660 H 116.67590333512601 50.962702188519074 90.74443280916934 H 0.0 **** 0.06
22661 C 58.82034644243396 168.95274578883192 8.454748132834823 C 0.0 **** -0.24
22662 H 59.83063051371255 169.36014962516717 8.448889624904098 H 0.0 **** 0.06
22663 H 58.7997517094513 168.02341847965835 7.884068911248647 H 0.0 **** 0.06
22664 H 58.136039408906925 169.67130143482768 8.003360485336486 H 0.0 **** 0.06
22665 H 58.514184939663835 168.75410900957536 9.481501116334329 H 0.0 **** 0.06
22666 C 89.00385051081759 13.249564351825683 13.985156249021202 C 0.0 **** -0.24
22667 H 89.67855138828963 13.345412769915526 13.13423207510786 H 0.0 **** 0.06
22668 H 89.2201919864894 14.035440351925189 14.709603234045915 H 0.0 **** 0.06
22669 H 89.14289631425424 12.274732704685775 14.451772417169451 H 0.0 **** 0.06
22670 H 87.97314878282594 13.344458422275324 13.642113663216719 H 0.0 **** 0.06
22671 C 213.67131881694695 201.27635814243732 79.56021200628406 C 0.0 **** -0.24
22672 H 212.7358499506418 201.00543738361722 79.07112502776435 H 0.0 **** 0.06
22673 H 213.66006249890546 202.33949624928158 79.8033885303078 H 0.0 **** 0.06
22674 H 214.50587951509024 201.06538125600298 78.89023337886839 H 0.0 **** 0.06
22675 H 213.78446167394247 200.6959021572434 80.47544731355929 H 0.0 **** 0.06
22676 C 66.9467005367576 19.46284723924296 128.1364890538996 C 0.0 **** -0.24
22677 H 67.98646962180028 19.514017769176718 128.4611303647864 H 0.0 **** 0.06
22678 H 66.38549848107463 18.82007508078648 128.81528383482708 H 0.0 **** 0.06
22679 H 66.90184476047867 19.05228251979699 127.1278212665833 H 0.0 **** 0.06
22680 H 66.51443761939042 20.46304509976754 128.14188652797816 H 0.0 **** 0.06
22681 C 148.93889984903518 96.98991255594102 128.86263476794358 C 0.0 **** -0.24
22682 H 149.16382655189307 97.94061096757194 129.34464060005251 H 0.0 **** 0.06
22683 H 148.19871066927357 97.14631144304208 128.07803518845367 H 0.0 **** 0.06
22684 H 148.54469046508768 96.2916150309269 129.6015114013182 H 0.0 **** 0.06
22685 H 149.85024560260143 96.57957300076062 128.42669495750124 H 0.0 **** 0.06
22686 C 25.303490007898404 40.081983388674175 193.24197205942448 C 0.0 **** -0.24
22687 H 25.502496977556802 39.67889524305525 192.2493063056004 H 0.0 **** 0.06
22688 H 24.49667795380151 40.81219854416487 193.1821618050834 H 0.0 **** 0.06
22689 H 26.202341278017514 40.564453599745505 193.6244102990172 H 0.0 **** 0.06
22690 H 25.01295242366541 39.271934898540195 193.91127654930938 H 0.0 **** 0.06
22691 C 134.32423155703145 61.79295016467063 33.351097091136566 C 0.0 **** -0.24
22692 H 133.27599486663354 61.58107282178976 33.13841426837391 H 0.0 **** 0.06
22693 H 134.4342728184842 62.8432727680522 33.62118872101401 H 0.0 **** 0.06
22694 H 134.9241707010181 61.58013182449123 32.46698652487812 H 0.0 **** 0.06
22695 H 134.65951212907265 61.16757466725802 34.178085331858696 H 0.0 **** 0.06
22696 C 169.14821355093352 89.44928319610223 210.30011926954387 C 0.0 **** -0.24
22697 H 169.56918461622516 88.60047395314075 210.84017055325737 H 0.0 **** 0.06
22698 H 168.10778627613954 89.58819114091135 210.5957234363317 H 0.0 **** 0.06
22699 H 169.19888708056027 89.25832032280267 209.22793434157376 H 0.0 **** 0.06
22700 H 169.71668950620028 90.34877848543739 210.5364695385805 H 0.0 **** 0.06
22701 C 151.8842021511955 186.3686873959209 56.105132093158886 C 0.0 **** -0.24
22702 H 152.27596274952003 185.8175277472702 56.96010157451835 H 0.0 **** 0.06
22703 H 150.79539209010545 186.39159202837877 56.156143605121144 H 0.0 **** 0.06
22704 H 152.1950310488516 185.87700482024164 55.18317776550242 H 0.0 **** 0.06
22705 H 152.2707798445702 187.38751373157376 56.12301269091577 H 0.0 **** 0.06
22706 C 170.45449797684785 47.34219101710109 87.37449496682888 C 0.0 **** -0.24
22707 H 171.22890207070083 47.56590941687291 88.10760443915302 H 0.0 **** 0.06
22708 H 170.8705200493824 46.712287095932126 86.5883220730916 H 0.0 **** 0.06
22709 H 170.0855080891867 48.27169323409778 86.9404463114418 H 0.0 **** 0.06
22710 H 169.63229070438484 46.81825580904781 87.86361280925541 H 0.0 **** 0.06
22711 C 205.4552855773212 193.68796635895987 211.41560755662752 C 0.0 **** -0.24
22712 H 205.02669493420973 194.6806536536297 211.5539409758352 H 0.0 **** 0.06
22713 H 206.5042554036761 193.78071808826138 211.13328581466683 H 0.0 **** 0.06
22714 H 204.9109568666037 193.1645754596696 210.62898352110832 H 0.0 **** 0.06
22715 H 205.3779694482132 193.1264522028882 212.3465561065684 H 0.0 **** 0.06
22716 C 98.79550213237349 126.17388997706108 132.87261445498694 C 0.0 **** -0.24
22717 H 98.04456131521675 126.16619094057144 133.66204572804054 H 0.0 **** 0.06
22718 H 98.32854560090283 126.46148181152644 131.9307006220397 H 0.0 **** 0.06
22719 H 99.2301946351397 125.17930000306013 132.77476077744052 H 0.0 **** 0.06
22720 H 99.57921220213802 126.88959805786565 133.1238009007733 H 0.0 **** 0.06
22721 C 94.77085403895722 51.77675552261155 125.29506886912786 C 0.0 **** -0.24
22722 H 94.74135105230926 50.79942036824929 125.776941994641 H 0.0 **** 0.06
22723 H 93.87277504493699 52.337358794080785 125.55447439983045 H 0.0 **** 0.06
22724 H 94.81945456675714 51.64766380737896 124.21374123251674 H 0.0 **** 0.06
22725 H 95.65079714640842 52.32193620228061 125.63593142817273 H 0.0 **** 0.06
22726 C 108.36364801294273 184.2400487065191 98.28653564342729 C 0.0 **** -0.24
22727 H 108.75910631464761 183.7658853524735 99.1845155837389 H 0.0 **** 0.06
22728 H 107.96667451305682 185.22318344545496 98.53950256356337 H 0.0 **** 0.06
22729 H 107.5689391298735 183.62227076812053 97.86872546984917 H 0.0 **** 0.06
22730 H 109.16309053714055 184.34942483718928 97.55225117163171 H 0.0 **** 0.06
22731 C 60.1178832799236 68.79932540702339 155.7770422951166 C 0.0 **** -0.24
22732 H 60.66629847365323 69.59872569836529 155.28031091931717 H 0.0 **** 0.06
22733 H 59.04943288630045 68.93024298740283 155.60447785213262 H 0.0 **** 0.06
22734 H 60.31913980671064 68.83241322886744 156.84857165610697 H 0.0 **** 0.06
22735 H 60.43590216414594 67.83651939463181 155.37705890957852 H 0.0 **** 0.06
22736 C 77.73294533384954 106.05392889118 208.67097789637165 C 0.0 **** -0.24
22737 H 76.88836640557433 105.67598844817901 209.24749988152655 H 0.0 **** 0.06
22738 H 77.83222332530441 107.12719668195147 208.83244387349066 H 0.0 **** 0.06
22739 H 77.56633861618506 105.859540156085 207.61233899346402 H 0.0 **** 0.06
22740 H 78.6461295393648 105.55194366845923 208.99313718365795 H 0.0 **** 0.06
22741 C 50.09875605295693 179.16535748202347 71.38732773463664 C 0.0 **** -0.24
22742 H 49.92592372689552 179.06010153415474 70.31687769502042 H 0.0 **** 0.06
22743 H 50.68250006812691 178.31778584215056 71.74671941511394 H 0.0 **** 0.06
22744 H 49.14183770824587 179.19475221518408 71.90812938843749 H 0.0 **** 0.06
22745 H 50.644999481116585 180.08981868429728 71.57852596728509 H 0.0 **** 0.06
22746 C 190.2750784267427 213.53123952341224 83.77336018395881 C 0.0 **** -0.24
22747 H 190.1744161571944 212.85840400843918 82.92125712223454 H 0.0 **** 0.06
22748 H 189.3879785581575 214.16096024134998 83.84629706954463 H 0.0 **** 0.06
22749 H 191.15671139289947 214.1587054627146 83.63901748590463 H 0.0 **** 0.06
22750 H 190.3819738319255 212.94629797554805 84.68712268160068 H 0.0 **** 0.06
22751 C 132.41702458680987 55.46136879629273 115.31010612491768 C 0.0 **** -0.24
22752 H 133.2926840691158 55.94814448522726 114.88063547679117 H 0.0 **** 0.06
22753 H 132.27926801776897 55.7994846666582 116.3366546652128 H 0.0 **** 0.06
22754 H 132.56208107743277 54.381085398786865 115.29993099894854 H 0.0 **** 0.06
22755 H 131.53559808058878 55.71495084054192 114.72088494179799 H 0.0 **** 0.06
22756 C 49.016529296132134 8.270387741500912 15.147994549988383 C 0.0 **** -0.24
22757 H 49.800251911860784 7.5154850612850055 15.213431132893732 H 0.0 **** 0.06
22758 H 49.470662945747904 9.259532103919128 15.084455545812546 H 0.0 **** 0.06
22759 H 48.38584801697047 8.21565560336478 16.035388856864557 H 0.0 **** 0.06
22760 H 48.411406458414874 8.089837308572669 14.259542508859525 H 0.0 **** 0.06
22761 C 134.08498496786132 163.50682638256168 97.76597761977006 C 0.0 **** -0.24
22762 H 134.10252875546792 163.24795548878555 96.70757684364584 H 0.0 **** 0.06
22763 H 134.3610618197539 164.55455679722763 97.88740536313004 H 0.0 **** 0.06
22764 H 134.79403055752738 162.87915885748487 98.30533182448166 H 0.0 **** 0.06
22765 H 133.08247918928703 163.34521055488068 98.16270502250082 H 0.0 **** 0.06
22766 C 65.63328782852369 101.16314309952328 174.95242706565435 C 0.0 **** -0.24
22767 H 64.81568098650575 100.72793580241584 174.3785527047511 H 0.0 **** 0.06
22768 H 65.30419142153261 102.10106851008568 175.40003584593987 H 0.0 **** 0.06
22769 H 66.47980921241492 101.3520208335441 174.29242033755807 H 0.0 **** 0.06
22770 H 65.93377454775737 100.47023961996122 175.73914344214796 H 0.0 **** 0.06
22771 C 66.01932773208205 113.16851582388348 173.81661041693621 C 0.0 **** -0.24
22772 H 66.23399462473019 113.71999684104388 174.7311463232428 H 0.0 **** 0.06
22773 H 66.91587644502034 113.1286180177634 173.19678001100408 H 0.0 **** 0.06
22774 H 65.22175427498087 113.66999237888616 173.26880481726295 H 0.0 **** 0.06
22775 H 65.7055869529585 112.15525870474828 174.06873514927685 H 0.0 **** 0.06
22776 C 45.58418809745562 33.68876854587927 207.36038675004284 C 0.0 **** -0.24
22777 H 45.69419885609271 33.99249160460084 206.31901693816673 H 0.0 **** 0.06
22778 H 44.952526884342376 32.80227583951748 207.41472757500023 H 0.0 **** 0.06
22779 H 45.12568747620861 34.49841075269899 207.92845172841487 H 0.0 **** 0.06
22780 H 46.565541544165484 33.46277824812199 207.77801809712156 H 0.0 **** 0.06
22781 C 133.6620107190668 178.10582225353585 106.94798783562733 C 0.0 **** -0.24
22782 H 134.14523472920132 177.129170073411 106.93437893350408 H 0.0 **** 0.06
22783 H 133.53036585671651 178.45968930635235 105.92481292464502 H 0.0 **** 0.06
22784 H 134.2820636916262 178.8105615162302 107.50013091818097 H 0.0 **** 0.06
22785 H 132.6889075777766 178.02167754187116 107.43120111198338 H 0.0 **** 0.06
22786 C 50.07428675602549 47.45018792215126 169.9499465090721 C 0.0 **** -0.24
22787 H 49.45461638612579 46.61573834496323 169.62091508169806 H 0.0 **** 0.06
22788 H 51.12432911614485 47.20937400227007 169.78280632354404 H 0.0 **** 0.06
22789 H 49.90669062266781 47.63091036208226 171.01075188131688 H 0.0 **** 0.06
22790 H 49.81164700068007 48.343241799291775 169.38235133816215 H 0.0 **** 0.06
22791 C 26.459916993913055 64.6721773732608 200.40198662949274 C 0.0 **** -0.24
22792 H 25.75365295021777 64.18644752366502 199.72807434738542 H 0.0 **** 0.06
22793 H 27.277764860031226 63.98705680827635 200.62651686299358 H 0.0 **** 0.06
22794 H 25.949121750394 64.94560342593857 201.32614223180326 H 0.0 **** 0.06
22795 H 26.85617632644329 65.5692699149758 199.92763166986634 H 0.0 **** 0.06
22796 C 33.4083622749031 161.6576913453888 111.40093082467912 C 0.0 **** -0.24
22797 H 33.18359930805275 162.30103103762758 112.25089244991382 H 0.0 **** 0.06
22798 H 34.47197555626643 161.71902632623667 111.17036858569249 H 0.0 **** 0.06
22799 H 32.82960799291922 161.9827780327354 110.53671369143085 H 0.0 **** 0.06
22800 H 33.14826624237409 160.62792998495567 111.64574857167942 H 0.0 **** 0.06
22801 C 72.41119866810043 144.89504314902553 33.19229488068274 C 0.0 **** -0.24
22802 H 73.29984393641418 145.310030749852 32.716481872952414 H 0.0 **** 0.06
22803 H 72.6406330918865 144.6375232953253 34.22609587700185 H 0.0 **** 0.06
22804 H 72.09756135526727 143.9997619135524 32.654944630645105 H 0.0 **** 0.06
22805 H 71.60923158139168 145.6324479460497 33.16973202716261 H 0.0 **** 0.06
22806 C 143.10906446764886 137.57709661211493 149.25264861746064 C 0.0 **** -0.24
22807 H 142.53563708512775 136.88861739863233 149.87449552000015 H 0.0 **** 0.06
22808 H 143.7076657701018 138.22836742494331 149.88927169277258 H 0.0 **** 0.06
22809 H 142.4257945632844 138.18090958891094 148.65536705484578 H 0.0 **** 0.06
22810 H 143.76549998213198 137.01000102526888 148.59287506362335 H 0.0 **** 0.06
22811 C 131.27247999929625 10.31910659995549 80.89192431574723 C 0.0 **** -0.24
22812 H 130.6971197916855 11.157678103150829 80.50032682660351 H 0.0 **** 0.06
22813 H 130.59940164653688 9.61197891932278 81.37580146514934 H 0.0 **** 0.06
22814 H 131.99864068490774 10.686213612498477 81.61819097548108 H 0.0 **** 0.06
22815 H 131.79479009267004 9.823423290303197 80.07425913835085 H 0.0 **** 0.06
22816 C 108.90177334053129 7.59310368523245 126.2129374468427 C 0.0 **** -0.24
22817 H 108.92725873972171 8.597589336269692 125.79069675127401 H 0.0 **** 0.06
22818 H 107.86564139581981 7.277851286478835 126.33795609759453 H 0.0 **** 0.06
22819 H 109.39969688780894 7.594147462155746 127.18262357660383 H 0.0 **** 0.06
22820 H 109.41401508308002 6.904015119703956 125.5423053094374 H 0.0 **** 0.06
22821 C 26.192513348587 111.46715232183293 30.60903936640173 C 0.0 **** -0.24
22822 H 27.03425364935481 112.15787682994774 30.574139003893237 H 0.0 **** 0.06
22823 H 25.841207769898006 111.27077801551305 29.59641670880987 H 0.0 **** 0.06
22824 H 25.38648975781183 111.90661432216545 31.195862373875855 H 0.0 **** 0.06
22825 H 26.509687818779668 110.53253026933989 31.072153952037638 H 0.0 **** 0.06
22826 C 209.9975645374447 6.492082171463792 51.361025085247945 C 0.0 **** -0.24
22827 H 209.11151828993172 5.864242232618707 51.26010324472895 H 0.0 **** 0.06
22828 H 210.84031478082667 6.014347107607406 50.86185841505721 H 0.0 **** 0.06
22829 H 210.22818106109548 6.625931294079649 52.418139826578056 H 0.0 **** 0.06
22830 H 209.80659993883177 7.463529054373097 50.90480078069845 H 0.0 **** 0.06
22831 C 150.70158829366017 61.59654468734588 172.1430925130442 C 0.0 **** -0.24
22832 H 149.83945679833425 61.29990329854013 172.74052310262016 H 0.0 **** 0.06
22833 H 150.36635142509954 62.17847376536497 171.2843120207146 H 0.0 **** 0.06
22834 H 151.22662005516975 60.705828251785476 171.7974814253929 H 0.0 **** 0.06
22835 H 151.3740893648283 62.2008639627541 172.75198795660094 H 0.0 **** 0.06
22836 C 90.8357276305238 179.92076914993157 172.20340008838133 C 0.0 **** -0.24
22837 H 90.2406461526421 179.06608586149792 171.8817844065611 H 0.0 **** 0.06
22838 H 91.54207362868415 180.1876475510958 171.4162518085262 H 0.0 **** 0.06
22839 H 91.38261394811998 179.66048933690007 173.10970407334378 H 0.0 **** 0.06
22840 H 90.17817634935146 180.76644953983447 172.40416891879366 H 0.0 **** 0.06
22841 C 57.32399034608363 111.4816710030672 77.80580705492638 C 0.0 **** -0.24
22842 H 57.36554516382006 110.93157020611109 78.74623964579386 H 0.0 **** 0.06
22843 H 58.07551560451438 112.27140846185411 77.81415428755251 H 0.0 **** 0.06
22844 H 56.334701416009864 111.92326026403113 77.68664552360288 H 0.0 **** 0.06
22845 H 57.52075924519565 110.8009580762995 76.97774543718928 H 0.0 **** 0.06
22846 C 183.3596853052419 153.13019022025827 142.02838367724473 C 0.0 **** -0.24
22847 H 183.85047819879085 153.68249463396268 142.83025855575187 H 0.0 **** 0.06
22848 H 183.19190445109436 152.10090985051067 142.34634853649163 H 0.0 **** 0.06
22849 H 183.99224141898705 153.13900683402483 141.14111530978778 H 0.0 **** 0.06
22850 H 182.4033308369102 153.60010167393386 141.797332805474 H 0.0 **** 0.06
22851 C 213.80471101100437 49.05580844334037 35.71412870703955 C 0.0 **** -0.24
22852 H 213.81642385763752 49.092322023701456 36.80372804368241 H 0.0 **** 0.06
22853 H 213.20189626641957 49.879018409014066 35.330143186984344 H 0.0 **** 0.06
22854 H 213.3773657694262 48.108304052491576 35.386701460282836 H 0.0 **** 0.06
22855 H 214.82355500171903 49.144505762321415 35.3379428043429 H 0.0 **** 0.06
22856 C 212.03128062057579 110.63785421004972 183.85500369160678 C 0.0 **** -0.24
22857 H 211.23022348059465 111.37435493703298 183.9243166653358 H 0.0 **** 0.06
22858 H 211.97941833373932 110.13560296973198 182.88931216665856 H 0.0 **** 0.06
22859 H 211.91855620762743 109.9041808376996 184.65327540481093 H 0.0 **** 0.06
22860 H 212.99445603131775 111.13880772312773 183.95524765819263 H 0.0 **** 0.06
22861 C 4.838871658419315 16.760836859237457 160.47580158121275 C 0.0 **** -0.24
22862 H 3.802741371186656 16.543507878678113 160.2163670446201 H 0.0 **** 0.06
22863 H 5.449119116559437 16.75052314980222 159.57188298483052 H 0.0 **** 0.06
22864 H 5.2057678147892545 16.005867497171465 161.17165043061686 H 0.0 **** 0.06
22865 H 4.897273490402206 17.743946539113395 160.9426652831607 H 0.0 **** 0.06
22866 C 83.013046372095 68.11283871824212 213.52065051474952 C 0.0 **** -0.24
22867 H 82.21774503144752 68.84078090087912 213.68487022879793 H 0.0 **** 0.06
22868 H 83.21927243726714 68.03480531245825 212.45298917268084 H 0.0 **** 0.06
22869 H 82.69970693586941 67.14120676705826 213.90361252264887 H 0.0 **** 0.06
22870 H 83.91374393501775 68.43560988848913 214.0425277064528 H 0.0 **** 0.06
22871 C 27.647938909555023 181.4986217827731 147.941631862568 C 0.0 **** -0.24
22872 H 27.176129721972586 181.8329276500267 148.86562039852282 H 0.0 **** 0.06
22873 H 28.447679543506695 180.79572517348373 148.1755836021572 H 0.0 **** 0.06
22874 H 28.061690317028678 182.3586993195765 147.41416000747301 H 0.0 **** 0.06
22875 H 26.906323235387333 181.00884603415608 147.31142393935295 H 0.0 **** 0.06
22876 C 142.2405536131231 64.22458169966706 95.37892137062211 C 0.0 **** -0.24
22877 H 142.36923429456266 65.30336526352914 95.2903186472271 H 0.0 **** 0.06
22878 H 141.17843221930582 63.98208725708656 95.33620442536399 H 0.0 **** 0.06
22879 H 142.6527381808702 63.88610912792137 96.32895153780235 H 0.0 **** 0.06
22880 H 142.7600440242354 63.72881079335474 94.5589079210278 H 0.0 **** 0.06
22881 C 4.081760982209097 167.9772286162514 121.54799614628787 C 0.0 **** -0.24
22882 H 4.268764609130585 168.01423655530846 122.62096873879953 H 0.0 **** 0.06
22883 H 4.543788834204307 167.083865599025 121.12858833832975 H 0.0 **** 0.06
22884 H 4.506149907353411 168.86306878642182 121.07510887057812 H 0.0 **** 0.06
22885 H 3.006332449392694 167.94913902388583 121.36717685817258 H 0.0 **** 0.06
22886 C 164.17666342759304 133.33774520510525 131.08230342937384 C 0.0 **** -0.24
22887 H 164.15760658094854 132.30626914585827 130.73157404773332 H 0.0 **** 0.06
22888 H 163.16851162215409 133.75010557431165 131.0528079070391 H 0.0 **** 0.06
22889 H 164.83094818456283 133.9275983070113 130.439847265219 H 0.0 **** 0.06
22890 H 164.55120444428377 133.3660524614753 132.10619789923845 H 0.0 **** 0.06
22891 C 80.07662720258656 196.51512065712285 151.5384470901921 C 0.0 **** -0.24
22892 H 79.01263813730134 196.3104432238809 151.4165923980462 H 0.0 **** 0.06
22893 H 80.28174345110597 197.54823582613142 151.257316312012 H 0.0 **** 0.06
22894 H 80.65074236883044 195.84308556752882 150.90080946102034 H 0.0 **** 0.06
22895 H 80.35998458716358 196.35854290653413 152.5789773046813 H 0.0 **** 0.06
22896 C 204.98231990977655 51.03247820756212 151.65314501638989 C 0.0 **** -0.24
22897 H 204.8597309739671 51.59958945395044 150.7304885684568 H 0.0 **** 0.06
22898 H 204.57223849163367 50.030519480581745 151.5206342516837 H 0.0 **** 0.06
22899 H 204.45424631846652 51.53615187061325 152.46263884301112 H 0.0 **** 0.06
22900 H 206.04142560632903 50.962261498400835 151.89819980609474 H 0.0 **** 0.06
22901 C 198.3607757567384 72.30440112806592 78.02715856664042 C 0.0 **** -0.24
22902 H 198.81196358056582 72.6109415502725 78.9703147766786 H 0.0 **** 0.06
22903 H 198.25959541873067 73.17131715887551 77.37368761602676 H 0.0 **** 0.06
22904 H 197.37705266183914 71.87570494796087 78.21719694690466 H 0.0 **** 0.06
22905 H 198.9951187179746 71.55903141689252 77.54695012676092 H 0.0 **** 0.06
22906 C 42.433182959244675 53.50424021521887 60.36420504995523 C 0.0 **** -0.24
22907 H 42.10608075207739 54.15749301236383 61.17310928720994 H 0.0 **** 0.06
22908 H 41.80531442283467 52.61372444506857 60.33954949481807 H 0.0 **** 0.06
22909 H 43.47038618065187 53.21438322378843 60.52849600099036 H 0.0 **** 0.06
22910 H 42.35060222523737 54.033358871987176 59.41472518739498 H 0.0 **** 0.06
22911 C 16.444132977519516 175.4618083196147 5.735231442892882 C 0.0 **** -0.24
22912 H 16.71754879377052 175.4836150761119 6.790445830464307 H 0.0 **** 0.06
22913 H 17.34542047353729 175.52783349965853 5.125750793072086 H 0.0 **** 0.06
22914 H 15.790119621734888 176.30435258523613 5.5111961274583905 H 0.0 **** 0.06
22915 H 15.923297100049922 174.52936289580407 5.514367953856208 H 0.0 **** 0.06
22916 C 68.2554906750625 136.161319247481 187.0948700589263 C 0.0 **** -0.24
22917 H 68.95024049564825 135.45897782374976 186.6335747532787 H 0.0 **** 0.06
22918 H 67.97521781306082 135.7989508379406 188.08335950052185 H 0.0 **** 0.06
22919 H 67.36516192507935 136.2511910721554 186.473288292627 H 0.0 **** 0.06
22920 H 68.73406494362371 137.13636625842003 187.1871258732657 H 0.0 **** 0.06
22921 C 105.58312075989271 13.67306369040233 205.70858990142847 C 0.0 **** -0.24
22922 H 106.53598057134072 13.167727364283053 205.86650923624757 H 0.0 **** 0.06
22923 H 105.48580919665842 14.493767737091247 206.4195360810258 H 0.0 **** 0.06
22924 H 104.76805417542532 12.964953871898842 205.85746260317612 H 0.0 **** 0.06
22925 H 105.54390480351996 14.064286581593677 204.6931078209559 H 0.0 **** 0.06
22926 C 177.93970326342773 157.72677994731737 107.33038021866939 C 0.0 **** -0.24
22927 H 178.34407704987103 157.03859274374543 106.58835640244745 H 0.0 **** 0.06
22928 H 178.69051145020174 158.47798676359042 107.57610674891258 H 0.0 **** 0.06
22929 H 177.66985645249235 157.17376771546674 108.2301325780805 H 0.0 **** 0.06
22930 H 177.05449175262376 158.21667280375067 106.92493144879391 H 0.0 **** 0.06
22931 C 91.45072738503715 148.00676071031222 49.23427264486952 C 0.0 **** -0.24
22932 H 92.49907020722908 148.04053629201263 48.939344420225424 H 0.0 **** 0.06
22933 H 90.86700008210117 147.52900909638026 48.44705413776211 H 0.0 **** 0.06
22934 H 91.08525033794642 149.0217539398053 49.39230245188921 H 0.0 **** 0.06
22935 H 91.3501487859376 147.4363553998822 50.15764681811889 H 0.0 **** 0.06
22936 C 155.82813314127696 24.459193505103883 134.00943836231932 C 0.0 **** -0.24
22937 H 156.15675258608002 23.61729552784223 134.61796623831657 H 0.0 **** 0.06
22938 H 156.69189934975196 25.06080937670805 133.72409744397146 H 0.0 **** 0.06
22939 H 155.13133834741353 25.071416739367066 134.58344349511884 H 0.0 **** 0.06
22940 H 155.3311886426456 24.088050598659493 133.1134834339647 H 0.0 **** 0.06
22941 C 102.11266858868034 106.62384669945509 175.49507784849914 C 0.0 **** -0.24
22942 H 102.38991385135542 106.12340330584011 176.42306363337718 H 0.0 **** 0.06
22943 H 102.36024335348974 107.68265935816119 175.56601877124268 H 0.0 **** 0.06
22944 H 101.0418865665461 106.51101060052899 175.32756068499668 H 0.0 **** 0.06
22945 H 102.6602182761646 106.17715602840558 174.664041776871 H 0.0 **** 0.06
22946 C 51.626967698785975 25.200321112459378 51.20758422953399 C 0.0 **** -0.24
22947 H 51.77083387015253 24.716093565585254 52.17339598237953 H 0.0 **** 0.06
22948 H 52.00529403754206 26.22114900313771 51.252957368312465 H 0.0 **** 0.06
22949 H 50.56386798353681 25.21710166976719 50.964375326328906 H 0.0 **** 0.06
22950 H 52.166372242327895 24.64579659890009 50.44026719978443 H 0.0 **** 0.06
22951 C 69.02835649734928 109.80285571220635 5.639492985047497 C 0.0 **** -0.24
22952 H 69.01028785967246 110.38674900706441 6.5601277082022875 H 0.0 **** 0.06
22953 H 68.2744546977816 109.01691259248393 5.69320183301312 H 0.0 **** 0.06
22954 H 70.01353776360448 109.35522211100015 5.512989431708199 H 0.0 **** 0.06
22955 H 68.81402101367087 110.45489366193705 4.7927445284432935 H 0.0 **** 0.06
22956 C 175.09498443256166 53.311736645369876 205.71878717352345 C 0.0 **** -0.24
22957 H 174.01739480174612 53.45734632024795 205.79303367922932 H 0.0 **** 0.06
22958 H 175.51325660264428 54.044567340825154 205.02904179001615 H 0.0 **** 0.06
22959 H 175.30022168434448 52.306477823894625 205.35031530934128 H 0.0 **** 0.06
22960 H 175.54676727263978 53.43840030215057 206.70192230993987 H 0.0 **** 0.06
22961 C 62.46967936476307 125.17509118985322 23.91801216711616 C 0.0 **** -0.24
22962 H 61.880281412548015 125.05443652512542 23.00929513971812 H 0.0 **** 0.06
22963 H 62.42346295786737 124.2583641672312 24.506420832372953 H 0.0 **** 0.06
22964 H 62.06947908020118 126.00327880676497 24.503097754699297 H 0.0 **** 0.06
22965 H 63.506360216224834 125.38656752617192 23.65343754524946 H 0.0 **** 0.06
22966 C 31.393997894693797 126.82516395719246 137.32468345134708 C 0.0 **** -0.24
22967 H 31.27004870481676 127.29417134136806 136.34821029711895 H 0.0 **** 0.06
22968 H 32.39527059824553 126.39921185636057 137.39930209590614 H 0.0 **** 0.06
22969 H 30.652521289778463 126.03547176489324 137.4444324234563 H 0.0 **** 0.06
22970 H 31.257708476473454 127.57282458997095 138.10546376222516 H 0.0 **** 0.06
22971 C 124.88669887629135 4.056374166365742 158.3996447912756 C 0.0 **** -0.24
22972 H 124.17809390567396 4.852811163249555 158.1752027713307 H 0.0 **** 0.06
22973 H 125.17301774320276 3.5533095039730256 157.47611645597698 H 0.0 **** 0.06
22974 H 124.42288178898218 3.3387968515260127 159.0771723996407 H 0.0 **** 0.06
22975 H 125.77257144481808 4.480644074742202 158.8725253033832 H 0.0 **** 0.06
22976 C 30.509860636561825 56.544416830250896 216.1078578340464 C 0.0 **** -0.24
22977 H 29.675934310755622 57.24468844068031 216.06127790927252 H 0.0 **** 0.06
22978 H 31.406803939203513 57.06887419414548 216.43925992183173 H 0.0 **** 0.06
22979 H 30.68153410077582 56.11883948116592 215.11929763161652 H 0.0 **** 0.06
22980 H 30.275096843239794 55.74626126252235 216.81154581521417 H 0.0 **** 0.06
22981 C 53.065382983114404 133.22652878792962 98.5896798856602 C 0.0 **** -0.24
22982 H 53.11752377402813 132.69078312001727 99.53825359295017 H 0.0 **** 0.06
22983 H 52.21557788234422 132.86154349301006 98.01276900548378 H 0.0 **** 0.06
22984 H 53.985164087445824 133.05861974194886 98.02843267856606 H 0.0 **** 0.06
22985 H 52.945558233783416 134.29314864018312 98.78055487905017 H 0.0 **** 0.06
22986 C 140.37037094379502 216.91481762552692 29.008759440790755 C 0.0 **** -0.24
22987 H 141.14954356404206 217.670300347494 28.910062870950043 H 0.0 **** 0.06
22988 H 140.6634076187084 216.18750252435402 29.765785454064314 H 0.0 **** 0.06
22989 H 140.2313882043461 216.40905994757637 28.0520593077145 H 0.0 **** 0.06
22990 H 139.43622924723905 217.3927503821421 29.305700051708357 H 0.0 **** 0.06
22991 C 54.44943369350871 133.65279236344537 211.31229243646888 C 0.0 **** -0.24
22992 H 54.7747065680751 133.09219513935852 210.43663415561068 H 0.0 **** 0.06
22993 H 55.28673853019248 134.22895824568582 211.70698552683774 H 0.0 **** 0.06
22994 H 54.09199064536398 132.96073961862066 212.07439911687382 H 0.0 **** 0.06
22995 H 53.6424925432718 134.33041000899755 211.02994606058363 H 0.0 **** 0.06
22996 C 63.69898868452111 119.8569062545589 144.2419668706816 C 0.0 **** -0.24
22997 H 63.563310690021694 118.90946235476459 144.76253930314755 H 0.0 **** 0.06
22998 H 63.5164176160244 119.71547410754819 143.17692467352055 H 0.0 **** 0.06
22999 H 64.71898462799021 120.21116597263794 144.392663494948 H 0.0 **** 0.06
23000 H 62.99734148909255 120.59175132908602 144.6374540090967 H 0.0 **** 0.06
23001 C 15.758319482270792 82.00062747915784 10.62072364990091 C 0.0 **** -0.24
23002 H 15.436145724201708 82.52576075067954 11.520822134032542 H 0.0 **** 0.06
23003 H 15.140541028631048 82.31305608843924 9.778104339206322 H 0.0 **** 0.06
23004 H 15.65398306755344 80.92634418182398 10.771074697032347 H 0.0 **** 0.06
23005 H 16.801750973271908 82.23986038625442 10.414613284991972 H 0.0 **** 0.06
23006 C 72.01342057212788 17.504375363929384 215.66642779715096 C 0.0 **** -0.24
23007 H 71.53364146560484 17.869077690499722 214.7582271820491 H 0.0 **** 0.06
23008 H 73.0946383564159 17.506395209331515 215.53236012278074 H 0.0 **** 0.06
23009 H 71.67368545630227 16.489265965645956 215.87325406829007 H 0.0 **** 0.06
23010 H 71.74873254287003 18.152618985701764 216.50160058491232 H 0.0 **** 0.06
23011 C 93.0157208386541 53.03945351333647 6.535466074027767 C 0.0 **** -0.24
23012 H 93.83785768947145 53.24036653679008 7.2226080520076295 H 0.0 **** 0.06
23013 H 92.251684742933 52.45174657500252 7.0453352267797555 H 0.0 **** 0.06
23014 H 93.38836090622054 52.48415423016894 5.675077666172015 H 0.0 **** 0.06
23015 H 92.58460354545623 53.9830004627791 6.200500143704545 H 0.0 **** 0.06
23016 C 105.08912141161791 117.996469510587 20.93897173801861 C 0.0 **** -0.24
23017 H 105.70289609192871 118.89498411294342 21.006516511515372 H 0.0 **** 0.06
23018 H 104.17374856496384 118.22279524755508 20.39259335122273 H 0.0 **** 0.06
23019 H 104.83825910037818 117.65244923289968 21.942061602038564 H 0.0 **** 0.06
23020 H 105.643127139443 117.21737016847418 20.415522598009886 H 0.0 **** 0.06
23021 C 205.00734117428985 179.2602573496842 158.3079245696154 C 0.0 **** -0.24
23022 H 204.0846788473563 179.63188483748513 157.86153305179033 H 0.0 **** 0.06
23023 H 205.01813388159388 178.17087462006424 158.26686448873295 H 0.0 **** 0.06
23024 H 205.06579876115993 179.58671779349 159.34606878870855 H 0.0 **** 0.06
23025 H 205.86192884138705 179.65296486464035 157.7550820072924 H 0.0 **** 0.06
23026 C 53.58223395195928 84.18119699974865 46.21915958044646 C 0.0 **** -0.24
23027 H 54.37366683339046 84.06211714754899 45.47949809578003 H 0.0 **** 0.06
23028 H 53.210185444193485 85.20601682620641 46.19154816130229 H 0.0 **** 0.06
23029 H 53.97756289359852 83.9638167303845 47.2116685182952 H 0.0 **** 0.06
23030 H 52.767520636654595 83.49283729485477 45.99392354640855 H 0.0 **** 0.06
23031 C 38.30050687822798 31.841879717767597 157.69324467594203 C 0.0 **** -0.24
23032 H 38.73821502278959 32.12034834431215 156.734627995261 H 0.0 **** 0.06
23033 H 38.61551019485981 30.83302767106271 157.95785680121054 H 0.0 **** 0.06
23034 H 37.21320678597448 31.87518568154364 157.6189858622534 H 0.0 **** 0.06
23035 H 38.632550429958144 32.54048648266655 158.4610791636946 H 0.0 **** 0.06
23036 C 122.46627944684089 50.207230803588544 139.1545970797145 C 0.0 **** -0.24
23037 H 121.45409075941608 50.176193142888934 139.55563552068583 H 0.0 **** 0.06
23038 H 122.68749669122126 49.26575492406195 138.652928646602 H 0.0 **** 0.06
23039 H 123.17561450112966 50.36068079848299 139.96922954544635 H 0.0 **** 0.06
23040 H 122.54940074170416 51.028597128714765 138.44246341470352 H 0.0 **** 0.06
23041 C 204.54875341191465 33.009585902732795 105.63069265347805 C 0.0 **** -0.24
23042 H 205.31385860194698 33.53169918542582 106.20479708308686 H 0.0 **** 0.06
23043 H 204.1329915709805 33.68500806128344 104.88258828484187 H 0.0 **** 0.06
23044 H 203.75624366282318 32.67782649478147 106.30102474950236 H 0.0 **** 0.06
23045 H 204.99121585147054 32.14545582716937 105.13570040229926 H 0.0 **** 0.06
23046 C 152.78740303023653 148.35898808231985 129.1072869058532 C 0.0 **** -0.24
23047 H 153.6628016770215 148.9919212145814 129.25096010068717 H 0.0 **** 0.06
23048 H 152.01524567020988 148.9206291303878 128.58150036986672 H 0.0 **** 0.06
23049 H 152.40788867373647 148.04067575122076 130.07831072229186 H 0.0 **** 0.06
23050 H 153.06433894045915 147.483081463009 128.52070764396228 H 0.0 **** 0.06
23051 C 97.99003558063875 1.8803089380425604 57.49640972680956 C 0.0 **** -0.24
23052 H 98.35241897449673 0.9199313605048189 57.12989735461423 H 0.0 **** 0.06
23053 H 98.32264213698265 2.67371442908518 56.82566553222212 H 0.0 **** 0.06
23054 H 98.3861278930225 2.059508569206116 58.49554560089415 H 0.0 **** 0.06
23055 H 96.90136799888161 1.867090572934103 57.53344059064844 H 0.0 **** 0.06
23056 C 129.09172249685383 73.30923282027116 6.366435970920321 C 0.0 **** -0.24
23057 H 129.98522260815997 73.89916933842098 6.568442348483472 H 0.0 **** 0.06
23058 H 128.2970826750634 73.60621379704192 7.051855559612932 H 0.0 **** 0.06
23059 H 129.3156743207531 72.25137814573439 6.505928674666109 H 0.0 **** 0.06
23060 H 128.76821733683317 73.47951190903406 5.339811613303283 H 0.0 **** 0.06
23061 C 183.18575612180706 116.79574851989196 128.42052365065422 C 0.0 **** -0.24
23062 H 182.75165261094548 115.9023504372106 127.9725547561136 H 0.0 **** 0.06
23063 H 183.26740222679348 116.6578710278286 129.499226513947 H 0.0 **** 0.06
23064 H 182.54780868221184 117.6545439998032 128.21090129851245 H 0.0 **** 0.06
23065 H 184.1769505457221 116.96761539505223 128.00041231470948 H 0.0 **** 0.06
23066 C 62.429847534090754 153.33439490841 7.675173985946856 C 0.0 **** -0.24
23067 H 62.59426378407346 154.00931674511264 8.514479608961267 H 0.0 **** 0.06
23068 H 61.798422728306974 152.505277101479 7.99339953747409 H 0.0 **** 0.06
23069 H 63.38776748958867 152.9484031915248 7.326311701584359 H 0.0 **** 0.06
23070 H 61.94052713324865 153.87510839848204 6.865413160930785 H 0.0 **** 0.06
23071 C 36.89744822224981 150.59116341289126 80.2037351288559 C 0.0 **** -0.24
23072 H 36.832515464980844 149.72356943023323 79.5467103472281 H 0.0 **** 0.06
23073 H 36.38020384364745 151.4340181431504 79.74448323070754 H 0.0 **** 0.06
23074 H 37.94448612264202 150.84903157834248 80.36330261766585 H 0.0 **** 0.06
23075 H 36.43077077603505 150.35657328113234 81.16119572464578 H 0.0 **** 0.06
23076 C 109.01908203989818 162.0877675091729 101.90532978993569 C 0.0 **** -0.24
23077 H 109.03893371424537 161.72180774594918 100.87887643180592 H 0.0 **** 0.06
23078 H 108.04893662131396 162.54220545702043 102.10963881483393 H 0.0 **** 0.06
23079 H 109.8044688620251 162.8298000168915 102.04225459199084 H 0.0 **** 0.06
23080 H 109.18181062823616 161.255194923801 102.59048922409077 H 0.0 **** 0.06
23081 C 209.38076885816852 98.62221606445877 153.86079713609126 C 0.0 **** -0.24
23082 H 209.9896323859287 97.76272654341369 153.5794395116061 H 0.0 **** 0.06
23083 H 209.4705652596574 99.39610727268416 153.09868550687048 H 0.0 **** 0.06
23084 H 209.7259546848576 99.01312036882848 154.81876515903025 H 0.0 **** 0.06
23085 H 208.33880278253417 98.31590230055724 153.94840818897927 H 0.0 **** 0.06
23086 C 154.2127869526426 121.29616229604397 85.74587446349786 C 0.0 **** -0.24
23087 H 154.86941662774439 122.0009626279122 86.2565829020969 H 0.0 **** 0.06
23088 H 153.6719977131371 121.81279668358928 84.952970910735 H 0.0 **** 0.06
23089 H 153.50242483413427 120.88038784421661 86.45963029190644 H 0.0 **** 0.06
23090 H 154.8079203922166 120.49169400445868 85.3147664974144 H 0.0 **** 0.06
23091 C 38.33629939775062 53.11288553547888 23.101548129866146 C 0.0 **** -0.24
23092 H 37.56079131380994 53.691585813684696 23.603549464487145 H 0.0 **** 0.06
23093 H 39.149299372296156 52.91388254408645 23.800423657157637 H 0.0 **** 0.06
23094 H 38.7174142445391 53.67734300985336 22.25019427901435 H 0.0 **** 0.06
23095 H 37.91699875998896 52.16890350291567 22.753602685903246 H 0.0 **** 0.06
23096 C 56.217903972413865 11.78720423841051 129.4035770986556 C 0.0 **** -0.24
23097 H 55.43953992673485 11.892506700610824 128.64868974392334 H 0.0 **** 0.06
23098 H 56.956373689338434 12.579060071116459 129.27731959336194 H 0.0 **** 0.06
23099 H 56.70256791172642 10.816849743974359 129.292189616702 H 0.0 **** 0.06
23100 H 55.77269720529422 11.859576060490497 130.39646904167722 H 0.0 **** 0.06
23101 C 176.4990343865372 78.43675583254408 57.9529464487066 C 0.0 **** -0.24
23102 H 175.92689498802554 79.35672501953441 58.07181332999389 H 0.0 **** 0.06
23103 H 177.37476804927962 78.46782431507155 58.601915980979484 H 0.0 **** 0.06
23104 H 176.81858131610124 78.33960745766642 56.915821541077165 H 0.0 **** 0.06
23105 H 175.8761218002885 77.58418066161342 58.222704891032976 H 0.0 **** 0.06
23106 C 30.198695398988377 51.48835718581654 211.9320564922789 C 0.0 **** -0.24
23107 H 31.13026854598104 51.05781236670329 212.30178179241955 H 0.0 **** 0.06
23108 H 29.409460080137933 50.73752063301488 211.97765506356944 H 0.0 **** 0.06
23109 H 30.333684311851016 51.81135760990023 210.90015637905222 H 0.0 **** 0.06
23110 H 29.924568834661045 52.34432161948439 212.54767376761959 H 0.0 **** 0.06
23111 C 198.3316160031046 150.77516215921048 66.85870228261246 C 0.0 **** -0.24
23112 H 198.0787004735619 150.85291042304135 67.91603055544618 H 0.0 **** 0.06
23113 H 199.39985026097958 150.95027337854435 66.72681677876443 H 0.0 **** 0.06
23114 H 197.76842993258828 151.51845618420208 66.29431271794653 H 0.0 **** 0.06
23115 H 198.0805487496282 149.77809985279765 66.49745151002452 H 0.0 **** 0.06
23116 C 107.72002494338021 171.9647209646634 144.71658305506196 C 0.0 **** -0.24
23117 H 107.67531947873208 171.26144229077434 145.5483610728674 H 0.0 **** 0.06
23118 H 108.71238027425004 171.935633758899 144.26859763345783 H 0.0 **** 0.06
23119 H 107.51441236419582 172.97194594149886 145.08027037404804 H 0.0 **** 0.06
23120 H 106.97519836109403 171.69017356639728 143.96875269531387 H 0.0 **** 0.06
23121 C 11.822842695460963 62.13602855042251 36.997294796261826 C 0.0 **** -0.24
23122 H 11.674807977306486 62.226648776382845 35.92110901447853 H 0.0 **** 0.06
23123 H 11.04813686994575 62.69927636787193 37.51838205484921 H 0.0 **** 0.06
23124 H 12.802726823859814 62.53186600856583 37.26377919436692 H 0.0 **** 0.06
23125 H 11.764033914199103 61.086094887460504 37.284434083184465 H 0.0 **** 0.06
23126 C 86.22999252167858 114.84709756898661 61.373512490538786 C 0.0 **** -0.24
23127 H 86.15221234016974 114.71720346978492 62.45280943668524 H 0.0 **** 0.06
23128 H 86.21595322057925 115.91072821812861 61.13399236607995 H 0.0 **** 0.06
23129 H 85.38955593478681 114.35348640375764 60.885832787455286 H 0.0 **** 0.06
23130 H 87.16399405564323 114.40845053815087 61.02229168541396 H 0.0 **** 0.06
23131 C 105.02898752939744 191.76511277066876 197.6200926828878 C 0.0 **** -0.24
23132 H 104.17785576164847 191.94881930114786 196.96399301792718 H 0.0 **** 0.06
23133 H 105.04925094081402 190.7120550134499 197.90226976452436 H 0.0 **** 0.06
23134 H 104.93606993632635 192.37958372196647 198.51542943688364 H 0.0 **** 0.06
23135 H 105.95160248706334 192.01966077601523 197.09795850608268 H 0.0 **** 0.06
23136 C 62.26759240041633 83.16565469471334 0.9143883698199033 C 0.0 **** -0.24
23137 H 63.31000715331487 82.9087330276489 1.098835793529787 H 0.0 **** 0.06
23138 H 62.16339656847663 84.24941546929779 0.8694335359371621 H 0.0 **** 0.06
23139 H 61.648470494519756 82.7744130808162 1.721716805370903 H 0.0 **** 0.06
23140 H 61.94758560342797 82.73047216133597 -0.03244369141344805 H 0.0 **** 0.06
23141 C 89.96959863647028 44.27326486684673 199.03159921704167 C 0.0 **** -0.24
23142 H 89.66139098254074 45.19897132301816 199.51906281586093 H 0.0 **** 0.06
23143 H 89.88593242438851 43.44637185028192 199.73671838293225 H 0.0 **** 0.06
23144 H 91.00363094786609 44.36623301129461 198.69904058184076 H 0.0 **** 0.06
23145 H 89.32661865728603 44.084557210716184 198.17251116219407 H 0.0 **** 0.06
23146 C 194.83096840702706 145.02358207432974 195.26814988901103 C 0.0 **** -0.24
23147 H 195.32768684592662 144.63526197507264 196.15740431429992 H 0.0 **** 0.06
23148 H 194.47425352308113 146.03496637741364 195.46440082308578 H 0.0 **** 0.06
23149 H 193.986525851178 144.38199524826473 195.01500909236793 H 0.0 **** 0.06
23150 H 195.5349966352833 145.04147971987084 194.43698561953175 H 0.0 **** 0.06
23151 C 70.38188324464682 214.22568211774973 104.07096042339016 C 0.0 **** -0.24
23152 H 69.42804307181075 214.60709844946572 104.43652800572796 H 0.0 **** 0.06
23153 H 70.92864110131666 215.029451824011 103.57703810512832 H 0.0 **** 0.06
23154 H 70.20276588256394 213.41764662336806 103.36277914691739 H 0.0 **** 0.06
23155 H 70.96684189166297 213.85063989748028 104.91096271899976 H 0.0 **** 0.06
23156 C 117.2215001471332 105.22563082854155 86.21876120308383 C 0.0 **** -0.24
23157 H 117.06724287734674 105.6094870951358 87.2267895676311 H 0.0 **** 0.06
23158 H 118.28205665337792 105.27673336944885 85.96921844024212 H 0.0 **** 0.06
23159 H 116.65136796138312 105.82621553194248 85.51005996849489 H 0.0 **** 0.06
23160 H 116.88631335130715 104.19023092174957 86.16911283293297 H 0.0 **** 0.06
23161 C 148.12898934461072 66.75730164255515 56.35032023397986 C 0.0 **** -0.24
23162 H 148.5899805383919 67.74145702240276 56.26271626606638 H 0.0 **** 0.06
23163 H 148.90701993581462 65.99433675549426 56.39652783078333 H 0.0 **** 0.06
23164 H 147.4928958023387 66.57556455039287 55.484499376245594 H 0.0 **** 0.06
23165 H 147.5265075193937 66.71902066461973 57.25873169366639 H 0.0 **** 0.06
23166 C 210.70857805116452 48.5421266700814 132.7626200922066 C 0.0 **** -0.24
23167 H 210.62546537220308 47.51571490635051 132.40513259224684 H 0.0 **** 0.06
23168 H 211.71135302033974 48.91732638089954 132.559077297959 H 0.0 **** 0.06
23169 H 210.5203816568895 48.569765993043404 133.83594405235374 H 0.0 **** 0.06
23170 H 209.97620655682 49.165070717644895 132.24838098679777 H 0.0 **** 0.06
23171 C 7.2269376438778465 66.28527418897306 151.1959945550302 C 0.0 **** -0.24
23172 H 7.5801925802607855 67.3164916151361 151.21207909949442 H 0.0 **** 0.06
23173 H 7.113613361392822 65.95586068287184 150.16311436485205 H 0.0 **** 0.06
23174 H 6.264596333197716 66.22288300782628 151.7048046297458 H 0.0 **** 0.06
23175 H 7.948481984799599 65.64620078388049 151.70361356588876 H 0.0 **** 0.06
23176 C 118.27890506069923 13.63153419992716 197.4854409763259 C 0.0 **** -0.24
23177 H 117.20938684437169 13.601374413974185 197.2813055288638 H 0.0 **** 0.06
23178 H 118.60000538266354 14.668330140232001 197.587052504712 H 0.0 **** 0.06
23179 H 118.81954707290078 13.162300947569634 196.66236592683487 H 0.0 **** 0.06
23180 H 118.48774526767517 13.093755952158915 198.41018767607517 H 0.0 **** 0.06
23181 C 21.412572494197207 166.48726327067536 202.4439055515498 C 0.0 **** -0.24
23182 H 21.869965044771618 165.82805151956626 201.7066640410378 H 0.0 **** 0.06
23183 H 22.161410377810626 166.79038632282914 203.17568924689277 H 0.0 **** 0.06
23184 H 20.603149602883775 165.95962833749041 202.94900168779873 H 0.0 **** 0.06
23185 H 21.014524293027876 167.37033128314374 201.94444319563132 H 0.0 **** 0.06
23186 C 8.307645293945598 3.4363717000105325 154.28518938654798 C 0.0 **** -0.24
23187 H 9.245669941641381 3.9154894950551267 154.00871696875896 H 0.0 **** 0.06
23188 H 8.022881910594208 2.7211603909888282 153.51274407733655 H 0.0 **** 0.06
23189 H 7.529058229343605 4.192707508134106 154.38482605637745 H 0.0 **** 0.06
23190 H 8.432035604432087 2.9155285655980023 155.23534444815868 H 0.0 **** 0.06
23191 C 14.555524071738091 156.0183411142811 106.78181697203588 C 0.0 **** -0.24
23192 H 15.414649713284973 155.3608968296171 106.64530947823296 H 0.0 **** 0.06
23193 H 13.683768046951286 155.58263984994318 106.29319954950775 H 0.0 **** 0.06
23194 H 14.770920016743645 156.99227456322615 106.3426901623361 H 0.0 **** 0.06
23195 H 14.354484689012125 156.1365162616401 107.84704087077206 H 0.0 **** 0.06
23196 C 56.31608474811577 5.439199495330541 176.12938994737334 C 0.0 **** -0.24
23197 H 55.30803060389805 5.852488607404723 176.11979456407153 H 0.0 **** 0.06
23198 H 56.81047925206772 5.666401496288415 175.18460083251466 H 0.0 **** 0.06
23199 H 56.26495191801011 4.358232550332815 176.26242395064565 H 0.0 **** 0.06
23200 H 56.88087721848726 5.879675327296184 176.95074044226146 H 0.0 **** 0.06
23201 C 49.78388526674003 45.47409454777278 73.92629224374387 C 0.0 **** -0.24
23202 H 48.75926558440459 45.23306611522548 74.20898453890457 H 0.0 **** 0.06
23203 H 50.280865334761444 44.575128759832126 73.5606633706946 H 0.0 **** 0.06
23204 H 50.31959662529724 45.857919596374984 74.79410662326565 H 0.0 **** 0.06
23205 H 49.77581352249686 46.23026371965847 73.14141444211079 H 0.0 **** 0.06
23206 C 111.96833891529276 114.74748883966807 17.78919069589847 C 0.0 **** -0.24
23207 H 111.2069239383891 115.52746924176076 17.77723474691888 H 0.0 **** 0.06
23208 H 111.53222437673618 113.81864926598253 18.156890699907663 H 0.0 **** 0.06
23209 H 112.78669457293269 115.04899633366621 18.44312371057414 H 0.0 **** 0.06
23210 H 112.34830455984657 114.5949593747569 16.778914490471024 H 0.0 **** 0.06
23211 C 12.684717468474787 125.10884289681745 101.05188915161223 C 0.0 **** -0.24
23212 H 12.926609871482412 124.30152716149989 101.74396900603902 H 0.0 **** 0.06
23213 H 12.681283580936736 126.05740768695718 101.58944305121524 H 0.0 **** 0.06
23214 H 11.70042270390283 124.93290563336542 100.61890414234408 H 0.0 **** 0.06
23215 H 13.430845713512838 125.14298887649734 100.25834216371213 H 0.0 **** 0.06
23216 C 167.71237519743266 82.90339686818157 58.555069828207266 C 0.0 **** -0.24
23217 H 167.14625848472173 82.150205611876 59.10213921885034 H 0.0 **** 0.06
23218 H 168.16310596882414 82.44973605898366 57.67206145440714 H 0.0 **** 0.06
23219 H 168.4963310647085 83.30557936681402 59.19810373236835 H 0.0 **** 0.06
23220 H 167.0450025837469 83.70910759881656 58.24866950938376 H 0.0 **** 0.06
23221 C 116.61215022776436 146.42310695405052 127.54192997852628 C 0.0 **** -0.24
23222 H 115.65364320339562 146.1261994034674 127.1149026414392 H 0.0 **** 0.06
23223 H 117.37542045317069 146.40965019423663 126.7640131371203 H 0.0 **** 0.06
23224 H 116.88724311015214 145.7262188411308 128.33330219958327 H 0.0 **** 0.06
23225 H 116.53031751340909 147.42844682977915 127.95430391908819 H 0.0 **** 0.06
23226 C 19.018288894245984 8.634164475064964 57.94107403468077 C 0.0 **** -0.24
23227 H 19.50785906769576 8.487270666963354 56.97859786206932 H 0.0 **** 0.06
23228 H 19.4823398179107 9.473872161357562 58.45942902514861 H 0.0 **** 0.06
23229 H 19.12405133195938 7.732322545421852 58.54316668454709 H 0.0 **** 0.06
23230 H 17.96115337250413 8.843933112170703 57.782471637685205 H 0.0 **** 0.06
23231 C 208.8346335858979 123.24180540807083 47.2735611412412 C 0.0 **** -0.24
23232 H 208.5590316831673 122.50801684203145 46.51670973352083 H 0.0 **** 0.06
23233 H 207.9742923583998 123.44565237591462 47.91182091579128 H 0.0 **** 0.06
23234 H 209.1532373987845 124.16420879483098 46.786947581454115 H 0.0 **** 0.06
23235 H 209.6519729032401 122.8493436195065 47.878766334198644 H 0.0 **** 0.06
23236 C 117.32913620737683 181.81959836412483 6.250693089243498 C 0.0 **** -0.24
23237 H 117.8322238000981 182.73916912797424 5.950204094078941 H 0.0 **** 0.06
23238 H 117.06234357289792 181.24551381313836 5.36319392850379 H 0.0 **** 0.06
23239 H 116.42696920857502 182.06642744443542 6.810332479165595 H 0.0 **** 0.06
23240 H 117.99640521967966 181.22961813402017 6.87826978916388 H 0.0 **** 0.06
23241 C 7.227666767037476 39.44553399186182 133.9687610254822 C 0.0 **** -0.24
23242 H 8.04373677159657 38.77216492032417 133.70803709973933 H 0.0 **** 0.06
23243 H 7.588149944434804 40.475253233974456 133.955183921402 H 0.0 **** 0.06
23244 H 6.859547016893146 39.20194067249993 134.96514612825223 H 0.0 **** 0.06
23245 H 6.419724537960235 39.33429770398227 133.2448204211688 H 0.0 **** 0.06
23246 C 107.171593667242 150.03164020387783 13.755433901280853 C 0.0 **** -0.24
23247 H 107.56746072687258 149.0166729801016 13.705105336347302 H 0.0 **** 0.06
23248 H 106.09302093207577 149.9929797570286 13.907323195721517 H 0.0 **** 0.06
23249 H 107.38956224615504 150.55213502019762 12.823062743786465 H 0.0 **** 0.06
23250 H 107.63751843846927 150.5626780700568 14.585796495061501 H 0.0 **** 0.06
23251 C 99.02274612289132 95.872760810905 15.029103436050434 C 0.0 **** -0.24
23252 H 99.69509105777063 95.01461539757103 15.012705710140253 H 0.0 **** 0.06
23253 H 98.90259790884879 96.25965359625935 14.017341354052604 H 0.0 **** 0.06
23254 H 99.44100930924476 96.64917462694147 15.669246092357369 H 0.0 **** 0.06
23255 H 98.05127851259711 95.56494015524193 15.418075532176303 H 0.0 **** 0.06
23256 C 188.58866910611098 115.53027521885036 75.65478730839472 C 0.0 **** -0.24
23257 H 188.02448437652743 116.43019215876149 75.90117570443239 H 0.0 **** 0.06
23258 H 188.90161798386097 115.0351255865794 76.57474872111418 H 0.0 **** 0.06
23259 H 189.46789812114702 115.80182447756312 75.07083570899378 H 0.0 **** 0.06
23260 H 187.960360276029 114.85533804993707 75.07412048630563 H 0.0 **** 0.06
23261 C 138.7001745847512 141.90671942455822 213.94164276884953 C 0.0 **** -0.24
23262 H 138.9158762011537 141.502286883357 214.9312696136089 H 0.0 **** 0.06
23263 H 139.44086269059187 142.6654702628913 213.68980864537147 H 0.0 **** 0.06
23264 H 137.70673417609163 142.35392213208132 213.9415460965793 H 0.0 **** 0.06
23265 H 138.7373346788334 141.10366183079776 213.2055675247707 H 0.0 **** 0.06
23266 C 126.98191326885636 125.08728899426588 139.9679979837211 C 0.0 **** -0.24
23267 H 127.21856380266827 124.74075860473592 138.9615818842987 H 0.0 **** 0.06
23268 H 127.78200058698532 124.79688284549549 140.64996478158685 H 0.0 **** 0.06
23269 H 126.04315453422568 124.63902966679176 140.2947161566142 H 0.0 **** 0.06
23270 H 126.88424540564564 126.17301437501824 139.96357903807967 H 0.0 **** 0.06
23271 C 161.10159915973315 57.262184542243205 104.57495447729816 C 0.0 **** -0.24
23272 H 160.83671565331963 56.90373933633015 105.56950909805572 H 0.0 **** 0.06
23273 H 162.18081627501184 57.186575688160914 104.43692230978853 H 0.0 **** 0.06
23274 H 160.7942421644321 58.3032019423738 104.47028067758409 H 0.0 **** 0.06
23275 H 160.5949097489339 56.65715588716118 103.82352364682721 H 0.0 **** 0.06
23276 C 114.70762378734743 155.90134003311698 165.61036515956738 C 0.0 **** -0.24
23277 H 114.98529224531082 156.48083553016312 164.72963515471272 H 0.0 **** 0.06
23278 H 115.45300071026249 155.12507215636913 165.7840763199494 H 0.0 **** 0.06
23279 H 113.73258323567076 155.44109634211281 165.44859429002136 H 0.0 **** 0.06
23280 H 114.6591816029429 156.5598497324831 166.47726334099417 H 0.0 **** 0.06
23281 C 140.11028402642643 15.594803882093771 0.7798168164013646 C 0.0 **** -0.24
23282 H 139.87497661350642 16.108138877213293 1.7118810485217182 H 0.0 **** 0.06
23283 H 139.6968317263769 16.157436590314845 -0.05787452706141494 H 0.0 **** 0.06
23284 H 139.67659034985405 14.595152792915954 0.7961760330861409 H 0.0 **** 0.06
23285 H 141.19225461646943 15.519752443813786 0.6686769506791279 H 0.0 **** 0.06
23286 C 49.44851995534134 214.22594493993145 146.89326703644718 C 0.0 **** -0.24
23287 H 48.977141899898356 213.94806726910662 145.95060916419544 H 0.0 **** 0.06
23288 H 50.40796195506192 214.70297608805765 146.69289370530555 H 0.0 **** 0.06
23289 H 49.60501539812702 213.33308182303344 147.49812053776054 H 0.0 **** 0.06
23290 H 48.80265412185656 214.92133472810406 147.43023213793174 H 0.0 **** 0.06
23291 C 104.32312107147203 75.65738299197496 59.562526035691974 C 0.0 **** -0.24
23292 H 104.03793818770413 74.62547352588119 59.765744397149774 H 0.0 **** 0.06
23293 H 104.97948209408617 75.68702813160384 58.692089632809655 H 0.0 **** 0.06
23294 H 104.84558400537446 76.06676199481852 60.4262021463648 H 0.0 **** 0.06
23295 H 103.42924806627263 76.24857063618403 59.36463124214964 H 0.0 **** 0.06
23296 C 154.84117941002813 93.54276308593084 144.85265446850002 C 0.0 **** -0.24
23297 H 155.86433187377497 93.56412512679945 144.47717898488844 H 0.0 **** 0.06
23298 H 154.804515754977 92.95757046038007 145.77125312724655 H 0.0 **** 0.06
23299 H 154.18984706766986 93.0886534050736 144.10593382919058 H 0.0 **** 0.06
23300 H 154.50820314962857 94.5600409302598 145.05535304341475 H 0.0 **** 0.06
23301 C 18.414645865888417 124.85062990672601 5.686695110610685 C 0.0 **** -0.24
23302 H 17.864180865226615 124.11175537576445 6.269531156511448 H 0.0 **** 0.06
23303 H 17.937317584467678 125.82482420749427 5.793016860219524 H 0.0 **** 0.06
23304 H 18.41523703465691 124.5575375907077 4.637053898669677 H 0.0 **** 0.06
23305 H 19.440675508975858 124.90595580244904 6.04908624856057 H 0.0 **** 0.06
23306 C 143.1576579383459 84.89990902763118 56.26147953746971 C 0.0 **** -0.24
23307 H 143.63300650452305 85.26803037411217 57.17095167016328 H 0.0 **** 0.06
23308 H 142.85422784396076 83.86259278183876 56.40525482027357 H 0.0 **** 0.06
23309 H 143.8625983740062 84.96217053199648 55.43285500692997 H 0.0 **** 0.06
23310 H 142.2807429658917 85.50814152272444 56.03867579524069 H 0.0 **** 0.06
23311 C 78.48319447394734 176.6808505455561 130.13699825417126 C 0.0 **** -0.24
23312 H 78.04034599969405 177.61554205247495 129.79462691570876 H 0.0 **** 0.06
23313 H 79.47001350386309 176.5612372215823 129.68901052709293 H 0.0 **** 0.06
23314 H 77.84634911544158 175.84765908194677 129.8416339153717 H 0.0 **** 0.06
23315 H 78.57671940084971 176.6992080221384 131.22344118892119 H 0.0 **** 0.06
23316 C 54.474669559342075 144.01936217740456 203.12553264866955 C 0.0 **** -0.24
23317 H 54.64024626073697 144.190543205935 202.06171661498615 H 0.0 **** 0.06
23318 H 54.503792335707104 142.94816824491608 203.33014104191113 H 0.0 **** 0.06
23319 H 53.500060402901155 144.41702572492886 203.41026383458026 H 0.0 **** 0.06
23320 H 55.2529269656182 144.52020701985634 203.70008983933292 H 0.0 **** 0.06
23321 C 23.929002026036954 153.7114126907553 201.11536207779858 C 0.0 **** -0.24
23322 H 23.099529798156425 153.81501235849117 200.41557562843812 H 0.0 **** 0.06
23323 H 24.810622037324492 153.35491696667555 200.5827589521142 H 0.0 **** 0.06
23324 H 23.65957758959729 152.9967947520331 201.89351747557538 H 0.0 **** 0.06
23325 H 24.14339300286298 154.67838180530885 201.56842316191336 H 0.0 **** 0.06
23326 C 33.157558523567275 10.793403819614639 114.80397424446898 C 0.0 **** -0.24
23327 H 32.76287754726778 11.611285769489086 114.20176816094943 H 0.0 **** 0.06
23328 H 34.24128357487274 10.75563694905918 114.69829645326462 H 0.0 **** 0.06
23329 H 32.72578055676681 9.852451710228081 114.46487686909785 H 0.0 **** 0.06
23330 H 32.89878228096552 10.95577645620088 115.85035425295712 H 0.0 **** 0.06
23331 C 206.44682065065186 90.27234784761608 19.323039322672017 C 0.0 **** -0.24
23332 H 207.272219412369 89.74933995103952 19.80651814216199 H 0.0 **** 0.06
23333 H 206.8425633833936 91.00842209943 18.623687828843515 H 0.0 **** 0.06
23334 H 205.84399917875055 90.77490465922303 20.078535873000007 H 0.0 **** 0.06
23335 H 205.82971007299287 89.5531969727103 18.78311088773461 H 0.0 **** 0.06
23336 C 81.95370741332609 12.555080220085927 64.58377792416451 C 0.0 **** -0.24
23337 H 82.68264618039497 11.963649314039856 64.03108282858938 H 0.0 **** 0.06
23338 H 81.03372871371799 11.982922125444418 64.70005100416802 H 0.0 **** 0.06
23339 H 81.74415787021947 13.474931202892833 64.03659484890784 H 0.0 **** 0.06
23340 H 82.35646409800843 12.80163458749277 65.56677342441418 H 0.0 **** 0.06
23341 C 162.06761520570427 12.18297213782624 91.61195887013373 C 0.0 **** -0.24
23342 H 163.00675695501906 11.645470466274048 91.48265745422297 H 0.0 **** 0.06
23343 H 161.9951090202245 12.97107180977919 90.86169030726207 H 0.0 **** 0.06
23344 H 162.03683538368227 12.625237626668621 92.60769928591698 H 0.0 **** 0.06
23345 H 161.23467581504212 11.490806062501193 91.49569536148387 H 0.0 **** 0.06
23346 C 51.09851545556681 204.85013491048034 175.28482080448123 C 0.0 **** -0.24
23347 H 51.28660789657252 205.5339957454724 176.11272462430315 H 0.0 **** 0.06
23348 H 51.94228225938653 204.16832757243185 175.1780009883963 H 0.0 **** 0.06
23349 H 50.97176791755244 205.42006292506784 174.36517183252468 H 0.0 **** 0.06
23350 H 50.19177096542519 204.27795587212097 175.48589478730554 H 0.0 **** 0.06
23351 C 87.57265529219224 62.03680964069852 2.5694340592381195 C 0.0 **** -0.24
23352 H 86.87929421196445 62.75250265676459 2.126484768758985 H 0.0 **** 0.06
23353 H 87.2116241411285 61.024533178101024 2.3928866833810503 H 0.0 **** 0.06
23354 H 87.64201956880025 62.21628474105404 3.6430361495272336 H 0.0 **** 0.06
23355 H 88.55722987391512 62.15726096582529 2.11694702398313 H 0.0 **** 0.06
23356 C 155.38260063169315 215.95490863458946 143.63191280588967 C 0.0 **** -0.24
23357 H 155.513553204402 215.78085801894235 142.56452022536655 H 0.0 **** 0.06
23358 H 155.5974221232687 215.03652394043598 144.17915903305163 H 0.0 **** 0.06
23359 H 154.35428663431833 216.26208682095063 143.82605204613606 H 0.0 **** 0.06
23360 H 156.06421970411492 216.74051317217868 143.9580969387385 H 0.0 **** 0.06
23361 C 116.20866594063644 176.14168013108713 55.95543051824717 C 0.0 **** -0.24
23362 H 115.59869291394843 176.85600055916106 55.40150057022167 H 0.0 **** 0.06
23363 H 116.49951203952291 175.3242478981535 55.29493885001118 H 0.0 **** 0.06
23364 H 115.6343087024703 175.7461575564626 56.79313081786128 H 0.0 **** 0.06
23365 H 117.10136026172582 176.64141898351585 56.33011311316845 H 0.0 **** 0.06
23366 C 112.91621910869657 146.14740021997835 171.66679363680598 C 0.0 **** -0.24
23367 H 112.35842925091328 146.70851943992136 170.91604610420188 H 0.0 **** 0.06
23368 H 112.271586770135 145.38344977091032 172.10161198785613 H 0.0 **** 0.06
23369 H 113.25616304756608 146.82567362390836 172.4491787328539 H 0.0 **** 0.06
23370 H 113.77845605137048 145.67288014076922 171.19808126301223 H 0.0 **** 0.06
23371 C 72.47646864307887 149.35612691825503 59.184297851422 C 0.0 **** -0.24
23372 H 72.30297405994145 150.25369428929378 58.59067205935119 H 0.0 **** 0.06
23373 H 71.89953637276551 148.5295533044723 58.76918418256315 H 0.0 **** 0.06
23374 H 72.16597721680967 149.53587935249737 60.21335725985419 H 0.0 **** 0.06
23375 H 73.53683769547354 149.10625033709908 59.163007254088015 H 0.0 **** 0.06
23376 C 23.37244009123677 114.18955479845913 37.10437647003988 C 0.0 **** -0.24
23377 H 23.65839027645461 114.98660796567772 37.790858720745064 H 0.0 **** 0.06
23378 H 24.169847989350643 114.03101727402971 36.37898580392533 H 0.0 **** 0.06
23379 H 22.457677455160734 114.47161122372931 36.58295568855959 H 0.0 **** 0.06
23380 H 23.201324587895158 113.27050435823254 37.66528369686111 H 0.0 **** 0.06
23381 C 60.44333998423684 13.768687214006931 85.05992304803067 C 0.0 **** -0.24
23382 H 60.20823872805373 13.979114381110122 86.10285829490442 H 0.0 **** 0.06
23383 H 60.76662888304524 14.687322800655906 84.5684160639135 H 0.0 **** 0.06
23384 H 59.555641069385246 13.382168009136308 84.55913099624047 H 0.0 **** 0.06
23385 H 61.24129756231072 13.028710017912658 85.00929135280938 H 0.0 **** 0.06
23386 C 195.2076600661039 11.619538800277212 70.19792018615465 C 0.0 **** -0.24
23387 H 194.14590122871837 11.482606846283403 70.40378167830164 H 0.0 **** 0.06
23388 H 195.78670041025816 10.916511877081462 70.79639370689722 H 0.0 **** 0.06
23389 H 195.49846581864102 12.639084479944074 70.45027064004444 H 0.0 **** 0.06
23390 H 195.397636503115 11.438186657349661 69.1392013754348 H 0.0 **** 0.06
23391 C 149.57300532320903 23.60107475788925 41.042621986013046 C 0.0 **** -0.24
23392 H 148.69740438509763 24.099023041098633 40.62887012510495 H 0.0 **** 0.06
23393 H 149.2746045776595 22.651635090705952 41.487876363569455 H 0.0 **** 0.06
23394 H 150.02452958161984 24.234339736828076 41.80660854032595 H 0.0 **** 0.06
23395 H 150.2969857051491 23.418549859861486 40.24755329076754 H 0.0 **** 0.06
23396 C 151.33902588788084 146.58619920853442 161.12767979138263 C 0.0 **** -0.24
23397 H 150.59104323723193 145.79665812520852 161.19504414897102 H 0.0 **** 0.06
23398 H 150.8973827218826 147.46460541218062 160.65658001416307 H 0.0 **** 0.06
23399 H 152.1817184354294 146.23865945701948 160.53135227962258 H 0.0 **** 0.06
23400 H 151.68395779325596 146.84551406011565 162.12850740953786 H 0.0 **** 0.06
23401 C 95.35694123800737 145.4032042949721 38.43211465456781 C 0.0 **** -0.24
23402 H 96.1737766015854 144.95032921700022 38.995069633585814 H 0.0 **** 0.06
23403 H 94.41696508963311 145.2350293975599 38.9589611247155 H 0.0 **** 0.06
23404 H 95.30482361898764 144.95271647920708 37.44126471282456 H 0.0 **** 0.06
23405 H 95.53412138174237 146.47461083960218 38.335671106380175 H 0.0 **** 0.06
23406 C 207.0801425689615 112.20418071660445 74.69698900570761 C 0.0 **** -0.24
23407 H 208.09859770360512 112.59199151176163 74.71992508542671 H 0.0 **** 0.06
23408 H 206.3880754681191 113.01431417742744 74.46748511122907 H 0.0 **** 0.06
23409 H 206.83297055327594 111.77734472441726 75.66866855984996 H 0.0 **** 0.06
23410 H 207.00298475136347 111.43190244314759 73.93124878425901 H 0.0 **** 0.06
23411 C 177.4680463181135 158.27989628677346 29.662689592264044 C 0.0 **** -0.24
23412 H 176.95465659684118 158.67301871552615 28.785512371019166 H 0.0 **** 0.06
23413 H 177.07205378581565 157.29308705060686 29.902597039803354 H 0.0 **** 0.06
23414 H 177.31072380264806 158.95009346069938 30.507550825909036 H 0.0 **** 0.06
23415 H 178.53517991366738 158.20302835912423 29.45426850903742 H 0.0 **** 0.06
23416 C 34.558376924449206 118.79164167385153 56.34341063204698 C 0.0 **** -0.24
23417 H 34.12770446467587 117.81817433766633 56.57666951115466 H 0.0 **** 0.06
23418 H 33.90267340355467 119.32480323142954 55.655218959607595 H 0.0 **** 0.06
23419 H 35.53611607513484 118.6547977008322 55.88166393344983 H 0.0 **** 0.06
23420 H 34.668589905969256 119.36966378432936 57.26141482058581 H 0.0 **** 0.06
23421 C 198.96586800088608 202.81409114755354 83.1202699495193 C 0.0 **** -0.24
23422 H 198.71840229995854 203.04935062076262 84.15561667937465 H 0.0 **** 0.06
23423 H 199.2263579115184 203.73115071730922 82.5916302875475 H 0.0 **** 0.06
23424 H 198.10490137605922 202.3483105701587 82.63917111569828 H 0.0 **** 0.06
23425 H 199.81138082125398 202.12698780393578 83.09632848918505 H 0.0 **** 0.06
23426 C 216.92581462849813 41.88880038577847 3.2288024026017226 C 0.0 **** -0.24
23427 H 216.22561514929686 42.181604946373454 2.4452774533029498 H 0.0 **** 0.06
23428 H 217.92977710165897 41.8190616725617 2.809549484819108 H 0.0 **** 0.06
23429 H 216.63294497774507 40.92043189663369 3.6344438363305045 H 0.0 **** 0.06
23430 H 216.913603598671 42.63499323882931 4.02255188110928 H 0.0 **** 0.06
23431 C 154.452747316463 43.97932677589594 146.35758093438795 C 0.0 **** -0.24
23432 H 154.7838275221925 43.09176088116874 146.89669485123943 H 0.0 **** 0.06
23433 H 154.63424814816182 43.84499037934796 145.2903900669561 H 0.0 **** 0.06
23434 H 155.0056137856343 44.847979487014356 146.71397994779966 H 0.0 **** 0.06
23435 H 153.3873449831496 44.13131528369084 146.52862036566813 H 0.0 **** 0.06
23436 C 169.79495443203797 112.60887204524039 9.774383843358379 C 0.0 **** -0.24
23437 H 169.69398466649352 111.58503063215267 9.416334992985611 H 0.0 **** 0.06
23438 H 169.67134543279198 113.29894972436529 8.93892901397659 H 0.0 **** 0.06
23439 H 170.78416352370178 112.74407904365074 10.213603156209842 H 0.0 **** 0.06
23440 H 169.03293769945375 112.80801045556086 10.526985667886535 H 0.0 **** 0.06
23441 C 82.1909382077432 15.926345312774316 71.54731912542765 C 0.0 **** -0.24
23442 H 82.03211846255836 14.980900584369806 71.02835891892862 H 0.0 **** 0.06
23443 H 82.12679648559522 15.764465283350887 72.62349468661482 H 0.0 **** 0.06
23444 H 81.4279872519124 16.64051047560463 71.24069384486184 H 0.0 **** 0.06
23445 H 83.17750741409823 16.316281029857635 71.29631020351569 H 0.0 **** 0.06
23446 C 95.5928576896011 77.48645933149517 53.29236398247116 C 0.0 **** -0.24
23447 H 96.0832945977737 78.21244909294849 53.941486202378826 H 0.0 **** 0.06
23448 H 96.16520615095546 76.5591466582856 53.28561328107638 H 0.0 **** 0.06
23449 H 95.53495559357107 77.88615683823399 52.28031933216812 H 0.0 **** 0.06
23450 H 94.58675719310533 77.29029742818791 53.66418712592599 H 0.0 **** 0.06
23451 C 152.25918428412575 104.6975052585207 43.49173709546352 C 0.0 **** -0.24
23452 H 153.29901999608649 104.75873290382701 43.170547112137825 H 0.0 **** 0.06
23453 H 152.1812738254551 104.02454665607625 44.345434237533894 H 0.0 **** 0.06
23454 H 151.6480402142363 104.3181543404312 42.67262846559609 H 0.0 **** 0.06
23455 H 151.90792792957865 105.68918317746058 43.77714735788399 H 0.0 **** 0.06
23456 C 151.09396699244985 34.78142323667234 126.15377304966785 C 0.0 **** -0.24
23457 H 150.030451875925 34.76941146532644 125.91458179494879 H 0.0 **** 0.06
23458 H 151.54595333674234 33.83889048602049 125.84497782029206 H 0.0 **** 0.06
23459 H 151.22239844888605 34.91060072745924 127.22885104139965 H 0.0 **** 0.06
23460 H 151.5751329127791 35.60571964268536 125.62915614496347 H 0.0 **** 0.06
23461 C 66.6781860750105 15.76133653697471 50.645435146029 C 0.0 **** -0.24
23462 H 67.33437760937653 16.500421875344728 51.10735148592539 H 0.0 **** 0.06
23463 H 66.3594998128143 16.121110880155072 49.666804656345676 H 0.0 **** 0.06
23464 H 65.80502839738915 15.606702108475218 51.27842644250052 H 0.0 **** 0.06
23465 H 67.21532966495408 14.820865300804144 50.52998505085708 H 0.0 **** 0.06
23466 C 9.150077560573777 161.40073526586127 18.91830242495162 C 0.0 **** -0.24
23467 H 9.07735425314172 160.4384312630534 18.41134733117788 H 0.0 **** 0.06
23468 H 8.438680070591488 162.0982288699302 18.476107422164134 H 0.0 **** 0.06
23469 H 10.16104186592085 161.79336756562554 18.808074517836616 H 0.0 **** 0.06
23470 H 8.923458003216126 161.27132417896362 19.976486945406734 H 0.0 **** 0.06
23471 C 14.22038000332276 212.60310228309544 66.8970604637933 C 0.0 **** -0.24
23472 H 15.293273016126335 212.79555228528292 66.88877082349057 H 0.0 **** 0.06
23473 H 13.741975381568238 213.2433847949057 67.63848103740989 H 0.0 **** 0.06
23474 H 14.040535527229622 211.55812660758812 67.14969644572547 H 0.0 **** 0.06
23475 H 13.805736088366928 212.8153454446052 65.9112935485474 H 0.0 **** 0.06
23476 C 75.2734122921948 90.13722337569789 52.30047286933147 C 0.0 **** -0.24
23477 H 74.43676395740074 90.72063754448476 51.916361421083934 H 0.0 **** 0.06
23478 H 75.41350930317289 90.35723784872681 53.3591586624206 H 0.0 **** 0.06
23479 H 76.17856169305564 90.39577992457868 51.75175327318287 H 0.0 **** 0.06
23480 H 75.06371738828595 89.07483119645627 52.17541270546842 H 0.0 **** 0.06
23481 C 183.33972297286311 41.719639973275434 9.61299276941412 C 0.0 **** -0.24
23482 H 184.30889748084093 42.21212186395803 9.698330418458383 H 0.0 **** 0.06
23483 H 182.82744159854957 41.75720804963126 10.575191083891937 H 0.0 **** 0.06
23484 H 183.48443420470593 40.68057827468914 9.318865984509173 H 0.0 **** 0.06
23485 H 182.73835858652507 42.2309972647551 8.8614385601079 H 0.0 **** 0.06
23486 C 180.1346016566563 173.67292892855795 124.9322411760041 C 0.0 **** -0.24
23487 H 180.08369997181325 174.43634062327038 124.15628645489811 H 0.0 **** 0.06
23488 H 180.98964372342323 173.02198284401476 124.74566298386439 H 0.0 **** 0.06
23489 H 179.21890292816897 173.0816244094912 124.92161367972538 H 0.0 **** 0.06
23490 H 180.24689015837816 174.15061503883726 125.90503015223995 H 0.0 **** 0.06
23491 C 183.39047836339122 97.11006780103038 202.13742738846688 C 0.0 **** -0.24
23492 H 182.61273388235708 97.08676742532815 201.37406852651952 H 0.0 **** 0.06
23493 H 183.34994136947907 98.06137832324221 202.66797633000078 H 0.0 **** 0.06
23494 H 184.36640783133362 96.99802168398931 201.66457594664726 H 0.0 **** 0.06
23495 H 183.23283277916227 96.29330181166115 202.84192389516716 H 0.0 **** 0.06
23496 C 164.94725838197303 158.10328382333154 38.005849214961245 C 0.0 **** -0.24
23497 H 164.92807151997684 157.1292594735574 38.494330084904334 H 0.0 **** 0.06
23498 H 164.17907783581998 158.74285745493228 38.44125748965749 H 0.0 **** 0.06
23499 H 164.75480879242085 157.9784983581893 36.94032686550926 H 0.0 **** 0.06
23500 H 165.92574143214358 158.56150287891438 38.14791379664774 H 0.0 **** 0.06
23501 C 116.71766144939416 54.256931277252164 58.70288507621348 C 0.0 **** -0.24
23502 H 117.42031833229164 54.728721678158976 59.3895627696959 H 0.0 **** 0.06
23503 H 115.7474141432039 54.154094325574945 59.189418602789075 H 0.0 **** 0.06
23504 H 117.0901179290209 53.27216037723193 58.421544403271625 H 0.0 **** 0.06
23505 H 116.61260007196391 54.87332838694391 57.81022341458181 H 0.0 **** 0.06
23506 C 65.25345662256841 208.70833191096818 11.640529032123666 C 0.0 **** -0.24
23507 H 64.67718584532322 207.96301021521396 12.188249480079108 H 0.0 **** 0.06
23508 H 64.59951403611564 209.23245110843465 10.942803932179956 H 0.0 **** 0.06
23509 H 66.05408808728576 208.21486175471665 11.088237783076721 H 0.0 **** 0.06
23510 H 65.68384439547339 209.4228474845769 12.342254048101736 H 0.0 **** 0.06
23511 C 26.763352485860423 73.49977392760667 39.102552066175804 C 0.0 **** -0.24
23512 H 26.78447128895958 74.53565519357619 39.4413221036922 H 0.0 **** 0.06
23513 H 25.796223586874206 73.28547389125129 38.647120036524385 H 0.0 **** 0.06
23514 H 26.919557682704664 72.83601493136842 39.95272443834668 H 0.0 **** 0.06
23515 H 27.553368771644216 73.34242414673469 38.368186045312186 H 0.0 **** 0.06
23516 C 169.6808952578058 194.7023449209065 141.649511505661 C 0.0 **** -0.24
23517 H 168.7557060110505 194.1628971967296 141.8549699338114 H 0.0 **** 0.06
23518 H 169.63529425814238 195.68972914704108 142.109214757115 H 0.0 **** 0.06
23519 H 169.80805470996873 194.80788717079415 140.57171864143612 H 0.0 **** 0.06
23520 H 170.5236584945008 194.14740780424947 142.06179546297614 H 0.0 **** 0.06
23521 C 187.71623331556708 133.7568058383988 28.510734345410214 C 0.0 **** -0.24
23522 H 187.46740976905858 132.97737089084916 27.791208025001566 H 0.0 **** 0.06
23523 H 187.70359884755396 134.7271927522512 28.014138181859934 H 0.0 **** 0.06
23524 H 188.7089472814356 133.5697346122862 28.919077901810113 H 0.0 **** 0.06
23525 H 186.98393718558003 133.7519679038743 29.318556183346544 H 0.0 **** 0.06
23526 C 63.3033682042456 23.803323666279084 163.001337177504 C 0.0 **** -0.24
23527 H 62.620908135739114 24.16456520978369 162.23142292625892 H 0.0 **** 0.06
23528 H 62.89161686298753 22.902568310932253 163.4571636457869 H 0.0 **** 0.06
23529 H 63.42999966677631 24.571802596143584 163.76410434309938 H 0.0 **** 0.06
23530 H 64.26942691513776 23.57461422448003 162.55187006362968 H 0.0 **** 0.06
23531 C 86.23372407360768 133.51023438774456 86.82761624921216 C 0.0 **** -0.24
23532 H 87.13352831729287 132.96987908564495 86.5337836353998 H 0.0 **** 0.06
23533 H 86.37204902921621 133.9301940516769 87.82352900196696 H 0.0 **** 0.06
23534 H 85.38584622328176 132.82562316195504 86.83508279854084 H 0.0 **** 0.06
23535 H 86.04568047246539 134.3137316580939 86.11638221208295 H 0.0 **** 0.06
23536 C 90.06496274668132 25.93110868951686 70.34714312312934 C 0.0 **** -0.24
23537 H 90.54373995390995 24.95276991899108 70.4069745861633 H 0.0 **** 0.06
23538 H 89.75271412299821 26.24257452357496 71.34372476093415 H 0.0 **** 0.06
23539 H 89.19461535757011 25.868563922507164 69.6949417058612 H 0.0 **** 0.06
23540 H 90.77104741482822 26.65655048816987 69.94317310775489 H 0.0 **** 0.06
23541 C 136.29521380864622 141.63456971273376 69.67661892146037 C 0.0 **** -0.24
23542 H 136.56204185419745 142.65978070302657 69.41991995975371 H 0.0 **** 0.06
23543 H 135.94972520457037 141.11423469564983 68.78211388094309 H 0.0 **** 0.06
23544 H 135.49999193750796 141.64180646192528 70.4223500722697 H 0.0 **** 0.06
23545 H 137.16812179697 141.12196207266015 70.08119424601108 H 0.0 **** 0.06
23546 C 45.601070617896056 206.72014395676695 172.86933277840177 C 0.0 **** -0.24
23547 H 45.42950261940422 205.8360714620331 172.25625336919455 H 0.0 **** 0.06
23548 H 45.859089089613676 206.41421273820265 173.88394093909926 H 0.0 **** 0.06
23549 H 44.695279568148464 207.32699626828443 172.892026437864 H 0.0 **** 0.06
23550 H 46.419252827594974 207.30283818792154 172.44578060264683 H 0.0 **** 0.06
23551 C 182.7018780786205 211.8478624014171 95.61251263098227 C 0.0 **** -0.24
23552 H 181.99566415387937 212.6522205025953 95.81827966838951 H 0.0 **** 0.06
23553 H 183.70935502172637 212.17500500497343 95.86811593732283 H 0.0 **** 0.06
23554 H 182.65932966242343 211.5898220664269 94.55412566842087 H 0.0 **** 0.06
23555 H 182.44007545903855 210.97373676621584 96.20967669405356 H 0.0 **** 0.06
23556 C 87.85380778927203 181.99467023187685 187.34002906978523 C 0.0 **** -0.24
23557 H 88.83309039054421 182.32257516077203 187.68993347882036 H 0.0 **** 0.06
23558 H 87.3931591320698 181.35786970137946 188.09640864697042 H 0.0 **** 0.06
23559 H 87.96886387979555 181.43478980375178 186.4123711993927 H 0.0 **** 0.06
23560 H 87.22145777340927 182.8657870089403 187.16379574982096 H 0.0 **** 0.06
23561 C 63.84620124183874 37.28708195484164 150.7427574925117 C 0.0 **** -0.24
23562 H 62.9875871496117 37.957369555985764 150.78526058136248 H 0.0 **** 0.06
23563 H 63.62487945578508 36.45622707204865 150.07186555680613 H 0.0 **** 0.06
23564 H 64.0553721181277 36.902160634307634 151.7410932408718 H 0.0 **** 0.06
23565 H 64.71466401024583 37.83097273466922 150.37319376176993 H 0.0 **** 0.06
23566 C 134.5174581605861 105.25730218571583 135.91403959532033 C 0.0 **** -0.24
23567 H 134.46263634890852 105.88500318015322 136.8032112094486 H 0.0 **** 0.06
23568 H 134.31772867694173 104.22073599591222 136.18877552971617 H 0.0 **** 0.06
23569 H 135.51258891211876 105.33201112550815 135.47661590696083 H 0.0 **** 0.06
23570 H 133.77556273857402 105.59002286515384 135.1880111722681 H 0.0 **** 0.06
23571 C 45.415395354545296 210.15117245883494 68.87789358158318 C 0.0 **** -0.24
23572 H 46.36468390081535 209.9936718928489 68.36513440085105 H 0.0 **** 0.06
23573 H 44.732662456854314 209.3366524810028 68.6331832311177 H 0.0 **** 0.06
23574 H 44.98158026150844 211.0973266583704 68.55632584300392 H 0.0 **** 0.06
23575 H 45.58313936574524 210.17520066364654 69.95370801477685 H 0.0 **** 0.06
23576 C 183.72517755582493 62.78429257494818 33.63726922967929 C 0.0 **** -0.24
23577 H 184.11526436987455 63.22602110523262 32.71995667076446 H 0.0 **** 0.06
23578 H 183.4323297465379 63.5774422693036 34.326561541586955 H 0.0 **** 0.06
23579 H 184.49530637349608 62.16692467128152 34.09899057523951 H 0.0 **** 0.06
23580 H 182.85686346012176 62.168106046993344 33.402974675322795 H 0.0 **** 0.06
23581 C 120.286836124295 33.04524492396291 46.98315472676995 C 0.0 **** -0.24
23582 H 120.70897408240047 34.028716143704784 47.19071688043192 H 0.0 **** 0.06
23583 H 119.61503069499928 33.11113820260296 46.12690377640985 H 0.0 **** 0.06
23584 H 119.73340428940334 32.69628273163963 47.85497622779798 H 0.0 **** 0.06
23585 H 121.0920810329428 32.345383689427706 46.75969997278423 H 0.0 **** 0.06
23586 C 60.4118937221275 58.81523336162428 6.660985844103436 C 0.0 **** -0.24
23587 H 60.76371228409505 59.63756555350963 7.284378666618494 H 0.0 **** 0.06
23588 H 60.60075187424496 57.86881892574172 7.168249543229379 H 0.0 **** 0.06
23589 H 60.94114200040025 58.82933497834415 5.708763956715956 H 0.0 **** 0.06
23590 H 59.3426100960599 58.92569876083738 6.483145905066749 H 0.0 **** 0.06
23591 C 76.37455111152263 66.47094462940743 77.83920523874663 C 0.0 **** -0.24
23592 H 75.53757582379598 66.97320940575963 78.32430481523987 H 0.0 **** 0.06
23593 H 77.12611422513356 67.2090255622756 77.55701987640164 H 0.0 **** 0.06
23594 H 76.02050878129819 65.95327498485972 76.94792397139376 H 0.0 **** 0.06
23595 H 76.81388610788684 65.75000622064573 78.5289745595873 H 0.0 **** 0.06
23596 C 76.49989436796041 150.26398569462248 104.40503529055651 C 0.0 **** -0.24
23597 H 76.02694712253954 149.4404308317994 103.86848663805141 H 0.0 **** 0.06
23598 H 75.75021326475392 150.788779653394 104.99732211568808 H 0.0 **** 0.06
23599 H 76.94615773027088 150.95437070319736 103.68886303618562 H 0.0 **** 0.06
23600 H 77.27525023249935 149.87138250681988 105.062001908321 H 0.0 **** 0.06
23601 C 135.35631345990032 29.28267681295881 51.24542181601153 C 0.0 **** -0.24
23602 H 136.0203060034877 29.935577180281143 50.67910022416862 H 0.0 **** 0.06
23603 H 135.58370103268243 29.366454343719084 52.30852405353777 H 0.0 **** 0.06
23604 H 135.50093418484852 28.250733448292067 50.92375755808773 H 0.0 **** 0.06
23605 H 134.32096584946856 29.576054089489077 51.07039540339163 H 0.0 **** 0.06
23606 C 41.766374346765986 25.411155182118833 137.52159288688063 C 0.0 **** -0.24
23607 H 40.78079880539889 25.175769980444727 137.11974490790817 H 0.0 **** 0.06
23608 H 41.954532031982524 26.48032426887201 137.4161637060783 H 0.0 **** 0.06
23609 H 42.5251574437487 24.85287178240057 136.9724207739867 H 0.0 **** 0.06
23610 H 41.804083093197505 25.136271547032976 138.5752560962531 H 0.0 **** 0.06
23611 C 211.45720397033415 186.73628767680484 119.91262935622213 C 0.0 **** -0.24
23612 H 212.41082112916703 186.7984936440056 120.43583376175356 H 0.0 **** 0.06
23613 H 210.6420693933759 186.7886274945604 120.63483037581288 H 0.0 **** 0.06
23614 H 211.4010478819601 185.7917057795939 119.37034097080688 H 0.0 **** 0.06
23615 H 211.37412961252468 187.56512445291142 119.20946409123887 H 0.0 **** 0.06
23616 C 149.97618627862755 120.58394504835123 54.91216505647304 C 0.0 **** -0.24
23617 H 149.10266456159678 120.63279014855276 54.263081795598396 H 0.0 **** 0.06
23618 H 150.87510777855454 120.48119615213493 54.30487852913244 H 0.0 **** 0.06
23619 H 149.88703876705512 119.72575811848505 55.57802844052814 H 0.0 **** 0.06
23620 H 150.03900209815566 121.49747546516066 55.50410635439712 H 0.0 **** 0.06
23621 C 165.25249357213875 150.25503229972986 78.22996632591197 C 0.0 **** -0.24
23622 H 165.48571763155866 150.20902802788987 77.1653934956472 H 0.0 **** 0.06
23623 H 164.69258221993215 149.36463151373977 78.51656685033423 H 0.0 **** 0.06
23624 H 164.65403642191552 151.14250740277737 78.43238691364242 H 0.0 **** 0.06
23625 H 166.17926074435712 150.3016632166022 78.80176550521954 H 0.0 **** 0.06
23626 C 209.15613368311529 114.20022346181645 154.26961225141605 C 0.0 **** -0.24
23627 H 208.92407402352111 114.11429242105658 155.33172256951877 H 0.0 **** 0.06
23628 H 209.99727963742424 114.87971330922772 154.13533956903842 H 0.0 **** 0.06
23629 H 208.28694205583724 114.58842311145105 153.7383382264892 H 0.0 **** 0.06
23630 H 209.41430759775454 113.21789399343203 153.8740200595443 H 0.0 **** 0.06
23631 C 184.69190015770792 2.491762045875454 164.6252684450652 C 0.0 **** -0.24
23632 H 185.42497235144955 2.706391564340592 165.40292419604657 H 0.0 **** 0.06
23633 H 183.68789918010023 2.543390236762491 165.0485824344685 H 0.0 **** 0.06
23634 H 184.86774942476197 1.4937345412070329 164.22523312993866 H 0.0 **** 0.06
23635 H 184.78645361826463 3.2262311225366886 163.82553289326887 H 0.0 **** 0.06
23636 C 17.792168876416554 199.48668642447234 22.089835076004533 C 0.0 **** -0.24
23637 H 17.76338857745003 200.44889263254825 21.578898643758237 H 0.0 **** 0.06
23638 H 18.61011280886649 199.48355448427478 22.810307179081747 H 0.0 **** 0.06
23639 H 17.94828310626022 198.69287599014163 21.359048180981347 H 0.0 **** 0.06
23640 H 16.848476573130142 199.3225080966449 22.60956716281646 H 0.0 **** 0.06
23641 C 139.77825581394904 156.12970550675243 193.64221689805316 C 0.0 **** -0.24
23642 H 139.14626650111762 155.80327073676733 194.46811458278353 H 0.0 **** 0.06
23643 H 139.64620293154996 155.45738390807128 192.79515207071296 H 0.0 **** 0.06
23644 H 140.82169838778253 156.11747985663993 193.95693623811513 H 0.0 **** 0.06
23645 H 139.50000514506922 157.14220234402524 193.3502085899026 H 0.0 **** 0.06
23646 C 204.58807848988207 40.03968624783792 120.82514620889073 C 0.0 **** -0.24
23647 H 204.24062551704333 39.25787319999644 121.50033797578938 H 0.0 **** 0.06
23648 H 204.2670916779822 41.01197907089161 121.20056502862157 H 0.0 **** 0.06
23649 H 204.16850931036444 39.87616056251923 119.83334977700109 H 0.0 **** 0.06
23650 H 205.67671429223756 40.01319097086969 120.7686551267691 H 0.0 **** 0.06
23651 C 20.34569203870457 197.8895850184501 207.70236193525753 C 0.0 **** -0.24
23652 H 20.690890489986316 198.80140661307217 207.2155010339747 H 0.0 **** 0.06
23653 H 20.385529333236605 197.06257911731666 206.99208846784072 H 0.0 **** 0.06
23654 H 19.32002784538082 198.025919074947 208.04418515362926 H 0.0 **** 0.06
23655 H 20.986636978166615 197.668305651146 208.55486538763407 H 0.0 **** 0.06
23656 C 202.65580330429518 209.89406877591418 211.72773000863648 C 0.0 **** -0.24
23657 H 203.00208100950968 209.70344674823002 212.74374041075157 H 0.0 **** 0.06
23658 H 203.44695681077553 209.64096023055416 211.02199257213925 H 0.0 **** 0.06
23659 H 202.3970464280835 210.94724583795931 211.62412947403953 H 0.0 **** 0.06
23660 H 201.77688062778947 209.28205887103644 211.52427744002102 H 0.0 **** 0.06
23661 C 139.8163226830494 15.994241249132898 133.212881990322 C 0.0 **** -0.24
23662 H 140.6060873599729 15.525800317076104 133.7987155464532 H 0.0 **** 0.06
23663 H 139.84248168545122 15.60773437083671 132.19353990166792 H 0.0 **** 0.06
23664 H 139.96700882968156 17.073504577007014 133.19696076768787 H 0.0 **** 0.06
23665 H 138.84840026282706 15.76951245949887 133.66263783803373 H 0.0 **** 0.06
23666 C 113.69714973241183 161.89727362159482 176.49681216627715 C 0.0 **** -0.24
23667 H 113.1962052067906 160.98839164919252 176.16622140923863 H 0.0 **** 0.06
23668 H 113.35993584519822 162.73963526491394 175.89187348175864 H 0.0 **** 0.06
23669 H 114.7750444832166 161.7794563977095 176.38606857547575 H 0.0 **** 0.06
23670 H 113.45815855223746 162.083384656651 177.54422519244648 H 0.0 **** 0.06
23671 C 216.65055760201057 82.27810775836849 108.08495319149786 C 0.0 **** -0.24
23672 H 216.6911213201426 81.19014970162016 108.0197764114507 H 0.0 **** 0.06
23673 H 217.01728552773534 82.71160007946264 107.15430117288288 H 0.0 **** 0.06
23674 H 217.27337872625807 82.6148883421655 108.91410567108763 H 0.0 **** 0.06
23675 H 215.6208313577198 82.59349534696253 108.2523857539746 H 0.0 **** 0.06
23676 C 158.84239462403468 18.014545119555507 30.931790134811735 C 0.0 **** -0.24
23677 H 158.63470202746186 17.635475714247235 31.932074242458725 H 0.0 **** 0.06
23678 H 157.90253238013776 18.228000066823114 30.422305992750523 H 0.0 **** 0.06
23679 H 159.39977678655035 17.266382407809374 30.36792417307214 H 0.0 **** 0.06
23680 H 159.4320455716071 18.92875476038266 31.005591510566205 H 0.0 **** 0.06
23681 C 140.97549870821422 15.501621773264802 69.8690027434087 C 0.0 **** -0.24
23682 H 141.3089777959649 14.472898879601686 69.7286779029741 H 0.0 **** 0.06
23683 H 140.7082265203997 15.93078163836583 68.90338919591335 H 0.0 **** 0.06
23684 H 141.77946381949693 16.085158420107476 70.31746034048085 H 0.0 **** 0.06
23685 H 140.10606968428255 15.51458612949041 70.5267521217862 H 0.0 **** 0.06
23686 C 182.61734024660183 183.62608251661055 14.443736111950187 C 0.0 **** -0.24
23687 H 182.8276232906501 183.6872093452094 13.375840193244642 H 0.0 **** 0.06
23688 H 181.775384339071 182.95420481456938 14.609352336273616 H 0.0 **** 0.06
23689 H 182.37145766003124 184.61854154417486 14.821954270322834 H 0.0 **** 0.06
23690 H 183.49541847022337 183.24573744098504 14.965176793643138 H 0.0 **** 0.06
23691 C 145.1603032384554 23.009091203776677 134.85556022067425 C 0.0 **** -0.24
23692 H 144.88147153961728 22.293019368899508 135.62894185773172 H 0.0 **** 0.06
23693 H 144.34574849332404 23.10444750109457 134.13824239429243 H 0.0 **** 0.06
23694 H 146.0571202044958 22.65934617726458 134.3440879494123 H 0.0 **** 0.06
23695 H 145.35819654926792 23.97860362044156 135.31250118500793 H 0.0 **** 0.06
23696 C 174.9166021035746 161.29491014808022 180.78606159808209 C 0.0 **** -0.24
23697 H 174.8220637642362 162.00378032248386 181.60959528955598 H 0.0 **** 0.06
23698 H 175.16972288452328 160.31165497369858 181.18167284227914 H 0.0 **** 0.06
23699 H 175.70314410962675 161.62876114707967 180.10935906473796 H 0.0 **** 0.06
23700 H 173.97205312812267 161.23822885451244 180.24500282025667 H 0.0 **** 0.06
23701 C 189.85659122013314 94.17190631103772 14.395436906905445 C 0.0 **** -0.24
23702 H 189.48918708063883 94.84589510668259 15.16912898644594 H 0.0 **** 0.06
23703 H 189.0139375811952 93.65929556177262 13.930259284688873 H 0.0 **** 0.06
23704 H 190.52678527065243 93.43722219088959 14.842556943767079 H 0.0 **** 0.06
23705 H 190.39542615364718 94.74438989077429 13.640317310331142 H 0.0 **** 0.06
23706 C 147.3826858302487 149.6845504393433 107.30172606086235 C 0.0 **** -0.24
23707 H 147.73523183735557 149.107402779685 106.44643544231592 H 0.0 **** 0.06
23708 H 146.69095340277067 150.4545041953932 106.95866977631941 H 0.0 **** 0.06
23709 H 148.23155805333283 150.1528041191471 107.79817801876838 H 0.0 **** 0.06
23710 H 146.8718667798188 149.02187437656227 108.00077432891744 H 0.0 **** 0.06
23711 C 150.0503338127723 166.01217535612253 73.09597381228292 C 0.0 **** -0.24
23712 H 150.69667874504887 166.84269924260812 73.38185745783858 H 0.0 **** 0.06
23713 H 150.61935217263567 165.29654907128156 72.50314478931278 H 0.0 **** 0.06
23714 H 149.21514359110063 166.39038361920092 72.50512952926016 H 0.0 **** 0.06
23715 H 149.6691528641938 165.5227273385492 73.99161762604041 H 0.0 **** 0.06
23716 C 103.48008103601263 83.75730877718921 123.63884253895874 C 0.0 **** -0.24
23717 H 103.94739000592553 84.59929690865472 123.12845989343667 H 0.0 **** 0.06
23718 H 102.56595269539979 83.47702789722776 123.11486147751405 H 0.0 **** 0.06
23719 H 103.23910809017555 84.0419402174923 124.66337225063229 H 0.0 **** 0.06
23720 H 104.16754211199343 82.91186240880351 123.64898321903242 H 0.0 **** 0.06
23721 C 195.60597766692757 50.682474921450364 56.54434087316736 C 0.0 **** -0.24
23722 H 195.43725321759646 49.885510052203074 57.268457018351654 H 0.0 **** 0.06
23723 H 195.37889816205157 51.64500174559345 57.00483536978612 H 0.0 **** 0.06
23724 H 194.95976259590464 50.53103256995428 55.680270611783385 H 0.0 **** 0.06
23725 H 196.64867612626222 50.669405020068666 56.225906815767814 H 0.0 **** 0.06
23726 C 188.24166387812937 9.302689953931292 197.66998834678193 C 0.0 **** -0.24
23727 H 188.54251797166165 9.385192524090314 196.62563722045417 H 0.0 **** 0.06
23728 H 187.20291411201467 8.97855702056529 197.7245674965883 H 0.0 **** 0.06
23729 H 188.3455090951348 10.273233434227905 198.15467139048656 H 0.0 **** 0.06
23730 H 188.87715150068124 8.574883858606341 198.17376993930503 H 0.0 **** 0.06
23731 C 52.313736376722886 204.83109605040787 133.7089965185154 C 0.0 **** -0.24
23732 H 52.76720279447417 204.02823980937316 134.2905300134724 H 0.0 **** 0.06
23733 H 51.935418250727565 205.5997709044283 134.38364940602276 H 0.0 **** 0.06
23734 H 51.49125872696055 204.4306854033196 133.11582877224527 H 0.0 **** 0.06
23735 H 53.06170059427561 205.26642479384145 133.04574500968062 H 0.0 **** 0.06
23736 C 81.291806256695 187.71352077833274 172.55384702282925 C 0.0 **** -0.24
23737 H 81.11672404911121 187.25300033462105 173.5263583518628 H 0.0 **** 0.06
23738 H 80.72022917771278 188.63979387713692 172.48367615023813 H 0.0 **** 0.06
23739 H 80.97515456198988 187.03056633425697 171.76642969713322 H 0.0 **** 0.06
23740 H 82.35362434687863 187.93140797044805 172.44143420108531 H 0.0 **** 0.06
23741 C 7.572336660934781 13.330421480996634 36.76245828279701 C 0.0 **** -0.24
23742 H 7.390616005028022 14.229520804740744 36.17378932400072 H 0.0 **** 0.06
23743 H 8.543362924619032 12.911437867518472 36.495763910296546 H 0.0 **** 0.06
23744 H 6.791875872907056 12.597825028547376 36.556746024028996 H 0.0 **** 0.06
23745 H 7.564180431457132 13.582648817836812 37.82285442741278 H 0.0 **** 0.06
23746 C 119.29401392359745 189.712336776058 129.5612986755812 C 0.0 **** -0.24
23747 H 118.40150981038528 190.3025896193333 129.7682893047412 H 0.0 **** 0.06
23748 H 119.37519931861607 188.908045309088 130.2938048784996 H 0.0 **** 0.06
23749 H 120.17504448117467 190.35063039885574 129.62298767888842 H 0.0 **** 0.06
23750 H 119.2227320602289 189.28620636006715 128.56024677255607 H 0.0 **** 0.06
23751 C 89.67423329067128 158.9279078359093 94.65857018393582 C 0.0 **** -0.24
23752 H 89.12191386986535 158.75987151289792 95.58358813110989 H 0.0 **** 0.06
23753 H 90.67264740817444 158.50019433636749 94.74830615325344 H 0.0 **** 0.06
23754 H 89.75186470648845 159.99921092419123 94.47251052436378 H 0.0 **** 0.06
23755 H 89.1475661726002 158.45287240360028 93.83016313322419 H 0.0 **** 0.06
23756 C 36.91716770282642 136.44338424250628 128.21163805275137 C 0.0 **** -0.24
23757 H 37.29265487677651 136.95030453304258 127.32218577491939 H 0.0 **** 0.06
23758 H 37.723910969088934 135.87179022282487 128.67113639407222 H 0.0 **** 0.06
23759 H 36.10796685396895 135.7694326134582 127.93061612715054 H 0.0 **** 0.06
23760 H 36.544773284434655 137.18294407467937 128.92096364776887 H 0.0 **** 0.06
23761 C 36.39753356864816 200.50253029705343 55.319936079505496 C 0.0 **** -0.24
23762 H 37.15818303666373 201.21130087492222 55.64527862082238 H 0.0 **** 0.06
23763 H 36.23814897621469 200.60864474053193 54.246840363894634 H 0.0 **** 0.06
23764 H 35.464569013942025 200.70227314060594 55.847928588556485 H 0.0 **** 0.06
23765 H 36.72923324777224 199.4879024321536 55.53969674474841 H 0.0 **** 0.06
23766 C 44.92761243407648 160.66667089562964 143.93885936147421 C 0.0 **** -0.24
23767 H 44.95266216693125 160.3624597280384 142.89281624535482 H 0.0 **** 0.06
23768 H 45.31299168771392 159.85780135015727 144.5614555910622 H 0.0 **** 0.06
23769 H 43.90040972316558 160.8905469528127 144.22805869053934 H 0.0 **** 0.06
23770 H 45.54575897389492 161.55457873837162 144.0737654941886 H 0.0 **** 0.06
23771 C 214.47531663268333 161.96622332019393 212.70614026118562 C 0.0 **** -0.24
23772 H 214.54559519380982 161.69189177838055 211.65309501875805 H 0.0 **** 0.06
23773 H 214.48334589612278 161.0644694415203 213.31811542711273 H 0.0 **** 0.06
23774 H 213.54724741816756 162.51205314597934 212.87651183697446 H 0.0 **** 0.06
23775 H 215.3226380066349 162.59637537950195 212.97400400624025 H 0.0 **** 0.06
23776 C 199.65280118623085 152.99155504729703 157.39954338448672 C 0.0 **** -0.24
23777 H 199.71840530971946 152.19378430713516 158.1393535500584 H 0.0 **** 0.06
23778 H 200.28797109616582 152.74946411756645 156.54725510596404 H 0.0 **** 0.06
23779 H 199.98432685829803 153.92893509398147 157.84641642754497 H 0.0 **** 0.06
23780 H 198.6195204439378 153.09385660461987 157.06615103952146 H 0.0 **** 0.06
23781 C 106.21612883577374 102.5613237696959 84.28370159380489 C 0.0 **** -0.24
23782 H 105.56097039103899 102.08145371710397 85.01167776411484 H 0.0 **** 0.06
23783 H 107.05205316253209 101.89994842680098 84.0563355702426 H 0.0 **** 0.06
23784 H 106.5942075820564 103.49629580349846 84.69787293953931 H 0.0 **** 0.06
23785 H 105.65606335329211 102.76697529988822 83.37194053624444 H 0.0 **** 0.06
23786 C 24.551329690268147 180.70774178772012 177.64542577783487 C 0.0 **** -0.24
23787 H 25.04966846652178 181.44787030803644 177.01970669822163 H 0.0 **** 0.06
23788 H 23.57654347973707 180.46975705184173 177.21815037712184 H 0.0 **** 0.06
23789 H 24.42039252350412 181.11133941443234 178.64880533152393 H 0.0 **** 0.06
23790 H 25.158748103810098 179.80455176319245 177.69317269684197 H 0.0 **** 0.06
23791 C 184.7628607691953 153.84835607601684 126.15198703508109 C 0.0 **** -0.24
23792 H 184.23959172578589 153.8443683751392 127.10879828274084 H 0.0 **** 0.06
23793 H 184.03799400924783 153.92816317181524 125.34215980888645 H 0.0 **** 0.06
23794 H 185.32853554949077 152.92227634376366 126.04482115455197 H 0.0 **** 0.06
23795 H 185.4453169362056 154.6963529955283 126.11561522615408 H 0.0 **** 0.06
23796 C 132.87674661432067 140.62173996090462 66.30078322710597 C 0.0 **** -0.24
23797 H 133.2380923905895 141.52742817908023 66.78933951073321 H 0.0 **** 0.06
23798 H 132.61106477789906 139.88304947961336 67.05772687768217 H 0.0 **** 0.06
23799 H 133.65908985897158 140.21968746362296 65.65786258202502 H 0.0 **** 0.06
23800 H 131.99927111386796 140.8597190484271 65.70047679086565 H 0.0 **** 0.06
23801 C 155.74611587326427 197.10269251421704 23.848708828257543 C 0.0 **** -0.24
23802 H 154.9288702383489 196.82782365720396 23.183197903792205 H 0.0 **** 0.06
23803 H 156.3007942314544 196.2073937236897 24.131360820192185 H 0.0 **** 0.06
23804 H 155.343239410928 197.57834844307453 24.743039379502278 H 0.0 **** 0.06
23805 H 156.41299626657786 197.7972268589067 23.338204454843435 H 0.0 **** 0.06
23806 C 100.22649825006941 104.32620293879107 150.19367905770793 C 0.0 **** -0.24
23807 H 99.30785284367373 104.59747688517147 149.67306191678898 H 0.0 **** 0.06
23808 H 101.04407682445965 104.2568541877257 149.47475611619006 H 0.0 **** 0.06
23809 H 100.0938300089391 103.36340830118841 150.68651853406635 H 0.0 **** 0.06
23810 H 100.46066583650826 105.08694387251528 150.93818957188495 H 0.0 **** 0.06
23811 C 2.334857849606351 120.73422839341208 160.58617186429703 C 0.0 **** -0.24
23812 H 2.163823053210443 120.03894865216341 161.40740830980815 H 0.0 **** 0.06
23813 H 1.627088907687721 120.52838167238627 159.7831548098708 H 0.0 **** 0.06
23814 H 3.352361382887736 120.61479126503588 160.21428819303662 H 0.0 **** 0.06
23815 H 2.1958107751670752 121.75567525461156 160.94015117947765 H 0.0 **** 0.06
23816 C 58.73165782179241 76.32663064123984 183.6749815640273 C 0.0 **** -0.24
23817 H 58.58188316214954 75.72372083834348 182.77967075342053 H 0.0 **** 0.06
23818 H 58.91598645278698 77.36209278024661 183.3893887687861 H 0.0 **** 0.06
23819 H 59.588718556735884 75.94424663309108 184.22982885154556 H 0.0 **** 0.06
23820 H 57.841143166588964 76.27462713800698 184.3016875777194 H 0.0 **** 0.06
23821 C 22.32657171752261 111.47568522885815 72.53838934794764 C 0.0 **** -0.24
23822 H 21.815108532418563 112.36022366488497 72.9179948038449 H 0.0 **** 0.06
23823 H 21.607840963069336 110.66628616902086 72.41428300539756 H 0.0 **** 0.06
23824 H 23.098391060354956 111.17146492307405 73.24667747799482 H 0.0 **** 0.06
23825 H 22.786418978495874 111.7063566029539 71.57810953016643 H 0.0 **** 0.06
23826 C 70.13747829647588 150.180066562065 213.92925465259995 C 0.0 **** -0.24
23827 H 70.94155283278565 150.15370351843978 213.19298073111597 H 0.0 **** 0.06
23828 H 69.89975670417857 151.21671821012046 214.17007607940386 H 0.0 **** 0.06
23829 H 70.45474866839965 149.6607179641312 214.8327327414712 H 0.0 **** 0.06
23830 H 69.25378119738747 149.69097907931047 213.51866724629195 H 0.0 **** 0.06
23831 C 111.85406216478434 182.90742877067385 59.75237269741439 C 0.0 **** -0.24
23832 H 112.92246858248974 182.71726842622832 59.64499520916439 H 0.0 **** 0.06
23833 H 111.58534857503868 183.7972692353536 59.182541931832645 H 0.0 **** 0.06
23834 H 111.61732429379576 183.06314720162777 60.80421301938952 H 0.0 **** 0.06
23835 H 111.2943395433342 182.05100630839692 59.37615827329154 H 0.0 **** 0.06
23836 C 75.69382043595374 49.36385205240299 134.69311552574288 C 0.0 **** -0.24
23837 H 76.1005880900035 49.892392090540696 133.83045066864952 H 0.0 **** 0.06
23838 H 75.59943471138348 48.303577490722944 134.4558786250896 H 0.0 **** 0.06
23839 H 74.71356373086536 49.770470573953986 134.93873368620774 H 0.0 **** 0.06
23840 H 76.36350087523942 49.48852973535509 135.54309240409003 H 0.0 **** 0.06
23841 C 162.9065370450234 28.131475868886653 34.68291954255875 C 0.0 **** -0.24
23842 H 163.33800071530987 28.106737814410252 33.68277392868771 H 0.0 **** 0.06
23843 H 161.88564739913383 27.750435589408127 34.6488346353367 H 0.0 **** 0.06
23844 H 162.8986471824482 29.157875388308014 35.04946955295213 H 0.0 **** 0.06
23845 H 163.5028924339285 27.511477161062018 35.351900095421485 H 0.0 **** 0.06
23846 C 52.20788664995557 49.047534644862196 151.03858682716987 C 0.0 **** -0.24
23847 H 53.009974445495004 48.863393451124125 150.32349429170307 H 0.0 **** 0.06
23848 H 51.53170965982713 48.19342369093795 151.05287924171512 H 0.0 **** 0.06
23849 H 51.65914007989896 49.94207265519486 150.74522685315162 H 0.0 **** 0.06
23850 H 52.63398884751544 49.192482994593206 152.03140253635758 H 0.0 **** 0.06
23851 C 82.62162562577309 173.39821325335492 158.5945451368758 C 0.0 **** -0.24
23852 H 82.69378201552495 173.99379635113326 157.68430100920955 H 0.0 **** 0.06
23853 H 82.41440062998511 174.05255248132275 159.44073843411815 H 0.0 **** 0.06
23854 H 83.563068846583 172.8746463527469 158.76122597330766 H 0.0 **** 0.06
23855 H 81.81542612495745 172.6716933981903 158.48992959173086 H 0.0 **** 0.06
23856 C 47.695913559924804 172.2480721692316 118.82254429971556 C 0.0 **** -0.24
23857 H 48.36758097127449 172.8316857357035 118.19287833094091 H 0.0 **** 0.06
23858 H 47.31346501615627 172.87766668611133 119.62519426826833 H 0.0 **** 0.06
23859 H 48.23903524347389 171.40441648179643 119.24810633998072 H 0.0 **** 0.06
23860 H 46.864520432428264 171.87949461278234 118.22065875419895 H 0.0 **** 0.06
23861 C 7.191396554754363 93.5940398367318 54.783845232746486 C 0.0 **** -0.24
23862 H 7.917878534324416 92.826983795619 54.514160021787106 H 0.0 **** 0.06
23863 H 6.2631090155419145 93.11879072523705 55.102113478579824 H 0.0 **** 0.06
23864 H 6.997507466300874 94.22918952934698 53.91964269757251 H 0.0 **** 0.06
23865 H 7.588632982285247 94.19965272728136 55.59834961090954 H 0.0 **** 0.06
23866 C 212.518852792721 5.786049664328345 60.26077993765011 C 0.0 **** -0.24
23867 H 213.51240342063923 5.708577708267654 60.7008598856479 H 0.0 **** 0.06
23868 H 211.7866754365079 5.343312291990372 60.93695897862176 H 0.0 **** 0.06
23869 H 212.50100231396956 5.256016342853798 59.30805742333027 H 0.0 **** 0.06
23870 H 212.2751662479527 6.834997427745009 60.09669895560353 H 0.0 **** 0.06
23871 C 47.59096422427493 94.51136963233091 62.8723734657828 C 0.0 **** -0.24
23872 H 46.55347866738701 94.27609194616235 63.10646156807465 H 0.0 **** 0.06
23873 H 47.68742006427421 95.57990541669449 62.68047327906555 H 0.0 **** 0.06
23874 H 47.8989593241602 93.95415789764121 61.988502314580415 H 0.0 **** 0.06
23875 H 48.22444376452404 94.23453990855319 63.71553603938264 H 0.0 **** 0.06
23876 C 4.388409834431059 150.6179316757627 65.77899571775879 C 0.0 **** -0.24
23877 H 4.399313363101612 150.92344201435287 64.73292990908742 H 0.0 **** 0.06
23878 H 4.059822423372339 149.58026466809127 65.85095863619743 H 0.0 **** 0.06
23879 H 3.7038751283116653 151.25608180619855 66.33617320541207 H 0.0 **** 0.06
23880 H 5.392924111736818 150.71057765586767 66.19498366154419 H 0.0 **** 0.06
23881 C 148.85330833368903 68.29654266545496 101.04224238223314 C 0.0 **** -0.24
23882 H 148.2918418192786 69.2179299539876 100.89140493703779 H 0.0 **** 0.06
23883 H 148.92251042451784 68.08397802812134 102.10862011354065 H 0.0 **** 0.06
23884 H 149.85537824470583 68.4106879643136 100.6286714902008 H 0.0 **** 0.06
23885 H 148.34473493588303 67.47502691337893 100.53910116866554 H 0.0 **** 0.06
23886 C 215.23237427647368 165.67843287963396 74.03333347157673 C 0.0 **** -0.24
23887 H 214.2656681094094 166.10193130233512 73.76087538445961 H 0.0 **** 0.06
23888 H 215.36728381763467 165.7454293054143 75.11373712891941 H 0.0 **** 0.06
23889 H 216.0260332383973 166.23263360792265 73.53270173649497 H 0.0 **** 0.06
23890 H 215.2700003216799 164.63303440883402 73.72713508258204 H 0.0 **** 0.06
23891 C 0.5033401808528737 22.42890081468522 205.44588535235 C 0.0 **** -0.24
23892 H 0.47728348394070963 22.37970223960275 206.53412552480088 H 0.0 **** 0.06
23893 H 1.3965130351955324 22.96837036849456 205.1284219461445 H 0.0 **** 0.06
23894 H -0.38351770483325254 22.950191606726662 205.08476605491953 H 0.0 **** 0.06
23895 H 0.5240297342510516 21.418587395929364 205.03696496941777 H 0.0 **** 0.06
23896 C 112.38402964232942 81.81116113059102 15.042111603636158 C 0.0 **** -0.24
23897 H 112.77297124585176 81.01932431800066 14.402852651318597 H 0.0 **** 0.06
23898 H 111.91191262619479 82.57638888247214 14.42527275759096 H 0.0 **** 0.06
23899 H 113.20203916242328 82.25482924437779 15.60929160967089 H 0.0 **** 0.06
23900 H 111.64956256168772 81.39356065532422 15.730272976595813 H 0.0 **** 0.06
23901 C 199.76752860678022 80.22378222960141 4.760865989339379 C 0.0 **** -0.24
23902 H 199.05870978554015 79.41112833831916 4.9231949349484125 H 0.0 **** 0.06
23903 H 200.73909956118493 79.80953147638864 4.492956830158221 H 0.0 **** 0.06
23904 H 199.86134234475514 80.81064781611717 5.67450371838828 H 0.0 **** 0.06
23905 H 199.40956356819407 80.86239473549735 3.9542252947068164 H 0.0 **** 0.06
23906 C 72.2181777606338 213.4053782559086 69.09358138577683 C 0.0 **** -0.24
23907 H 71.9699090555254 212.34715076800035 69.0119212891296 H 0.0 **** 0.06
23908 H 72.47371533909352 213.7951079442276 68.1088537930234 H 0.0 **** 0.06
23909 H 73.06823783371998 213.52717403658542 69.76510562311863 H 0.0 **** 0.06
23910 H 71.3605084641794 213.94964856603139 69.49016852770598 H 0.0 **** 0.06
23911 C 102.86820123967216 38.46613663434783 169.47072065186882 C 0.0 **** -0.24
23912 H 102.49070191858671 37.859489512161815 170.2950814358653 H 0.0 **** 0.06
23913 H 103.52251621535295 39.24369813220636 169.86375392157976 H 0.0 **** 0.06
23914 H 102.03182561318617 38.92452295298256 168.94518959439358 H 0.0 **** 0.06
23915 H 103.42775291924364 37.83319324122192 168.78163812906405 H 0.0 **** 0.06
23916 C 83.75211092848178 131.78981076111643 208.95224998465812 C 0.0 **** -0.24
23917 H 82.90678002077584 131.85441455264152 209.63773532549814 H 0.0 **** 0.06
23918 H 84.17892031874447 130.7877875980057 208.99477598051007 H 0.0 **** 0.06
23919 H 84.50917083393335 132.519887174433 209.2398501930437 H 0.0 **** 0.06
23920 H 83.41325991618527 131.99789411065984 207.93723350576514 H 0.0 **** 0.06
23921 C 53.74643421841927 210.81262946883845 162.39829705690835 C 0.0 **** -0.24
23922 H 53.83068287811321 209.90145308453043 161.80475436878672 H 0.0 **** 0.06
23923 H 54.33430022555564 210.70666116901407 163.31054725791242 H 0.0 **** 0.06
23924 H 52.70153180431589 210.98169954638632 162.65713171195443 H 0.0 **** 0.06
23925 H 54.12026277094094 211.65813077856765 161.82129803105903 H 0.0 **** 0.06
23926 C 216.53368438577576 80.04975252737893 165.97212787090075 C 0.0 **** -0.24
23927 H 216.08129542015678 80.61465425816692 166.7876009889419 H 0.0 **** 0.06
23928 H 216.94689642829823 80.74074175856481 165.23677296240703 H 0.0 **** 0.06
23929 H 215.77469545480457 79.42640933588632 165.4989997580263 H 0.0 **** 0.06
23930 H 217.3299072531231 79.41855718617467 166.3657669318764 H 0.0 **** 0.06
23931 C 146.4836212740758 34.533291802836104 31.102380982175703 C 0.0 **** -0.24
23932 H 145.56561173785883 34.74839075000585 30.555084829756055 H 0.0 **** 0.06
23933 H 146.49630489682778 33.48136455288498 31.390101935164353 H 0.0 **** 0.06
23934 H 146.5263502402958 35.15502862023364 31.996776144155263 H 0.0 **** 0.06
23935 H 147.3433562100832 34.748691165764996 30.468406156085166 H 0.0 **** 0.06
23936 C 3.7730240879902794 172.27123213362933 34.506622616338475 C 0.0 **** -0.24
23937 H 4.779368055115299 172.68309519036347 34.43781301018443 H 0.0 **** 0.06
23938 H 3.1079060701896424 172.82556674708502 33.84497294747369 H 0.0 **** 0.06
23939 H 3.416146447169382 172.35427637263058 35.53380330238811 H 0.0 **** 0.06
23940 H 3.7882533873947466 171.221456974187 34.21114106940831 H 0.0 **** 0.06
23941 C 50.23137972832757 169.3988682314801 49.2172989776376 C 0.0 **** -0.24
23942 H 50.241958877465834 168.46494923694104 48.655633129890745 H 0.0 **** 0.06
23943 H 50.66833854124326 170.19249880962929 48.61141150114699 H 0.0 **** 0.06
23944 H 50.8117114587032 169.27753104345405 50.13204785523972 H 0.0 **** 0.06
23945 H 49.20284589936165 169.6585593487522 49.47100717584074 H 0.0 **** 0.06
23946 C 87.81984677623001 21.25614456073133 204.22106909630622 C 0.0 **** -0.24
23947 H 87.87052691109909 21.392932713224752 203.14015897604142 H 0.0 **** 0.06
23948 H 86.84644617194033 20.84412807040883 204.4884823034393 H 0.0 **** 0.06
23949 H 87.9561958260731 22.2177521726789 204.71484319121683 H 0.0 **** 0.06
23950 H 88.60432168674572 20.570127535289416 204.53728873019634 H 0.0 **** 0.06
23951 C 123.68908808600152 86.77325328036028 210.07813421604422 C 0.0 **** -0.24
23952 H 123.0738197511793 86.14844977578787 209.43098231165214 H 0.0 **** 0.06
23953 H 123.6625474635811 86.37917386623661 211.0941746440937 H 0.0 **** 0.06
23954 H 123.30212550194175 87.79297987074364 210.07335912107266 H 0.0 **** 0.06
23955 H 124.71601649219592 86.77307338999265 209.71361790384069 H 0.0 **** 0.06
23956 C 108.6181627210046 211.3708920672418 89.23691151768419 C 0.0 **** -0.24
23957 H 109.33256197340056 210.59470945036784 88.96011481827254 H 0.0 **** 0.06
23958 H 108.56517451927924 212.1156823466385 88.44222614419864 H 0.0 **** 0.06
23959 H 108.94051996745473 211.84764011388756 90.16182838861504 H 0.0 **** 0.06
23960 H 107.6355039460086 210.92284770071856 89.3822356508483 H 0.0 **** 0.06
23961 C 152.57759521153525 171.1655351221367 164.3442835087215 C 0.0 **** -0.24
23962 H 151.6935248461532 170.93774704048832 163.74979440458225 H 0.0 **** 0.06
23963 H 153.29970377781086 171.70249648244038 163.72964065029117 H 0.0 **** 0.06
23964 H 153.0233651242367 170.23674393736815 164.7017219985866 H 0.0 **** 0.06
23965 H 152.29385847265428 171.78374300399872 165.19589469437835 H 0.0 **** 0.06
23966 C 111.00462502887409 21.553367525122468 210.73257526068545 C 0.0 **** -0.24
23967 H 111.18331868007202 22.588330559835782 211.02314749345032 H 0.0 **** 0.06
23968 H 110.42255616674352 21.530735330478365 209.81078310641905 H 0.0 **** 0.06
23969 H 110.45437552908537 21.042620072630413 211.5229401561632 H 0.0 **** 0.06
23970 H 111.95882738111918 21.05176270250361 210.57213958739996 H 0.0 **** 0.06
23971 C 184.17460744802656 5.612302581956726 43.971009424036936 C 0.0 **** -0.24
23972 H 184.04417981950158 4.9998161058214805 43.078404752109236 H 0.0 **** 0.06
23973 H 183.60844152045524 5.177800117446708 44.79508338496163 H 0.0 **** 0.06
23974 H 183.81438567393684 6.62167272578634 43.77467729099345 H 0.0 **** 0.06
23975 H 185.23194999687217 5.648466075375524 44.234258509349274 H 0.0 **** 0.06
23976 C 145.79451423168462 181.05673944543912 56.70648460938753 C 0.0 **** -0.24
23977 H 145.5419113148206 182.0464708412943 57.08630253845479 H 0.0 **** 0.06
23978 H 145.67326961793725 181.04118370832447 55.62304060481381 H 0.0 **** 0.06
23979 H 145.1343969647133 180.3147992513666 57.1565113752265 H 0.0 **** 0.06
23980 H 146.82894585744282 180.82324371737658 56.96052419343357 H 0.0 **** 0.06
23981 C 173.7273081554041 116.25723886810619 79.22877561889288 C 0.0 **** -0.24
23982 H 173.31366940071683 117.24250038537207 79.44638278401192 H 0.0 **** 0.06
23983 H 173.34127224593232 115.90368484065107 78.27232751520819 H 0.0 **** 0.06
23984 H 173.4411367716477 115.56140090886998 80.01719213520397 H 0.0 **** 0.06
23985 H 174.81439080392914 116.32390095217039 79.18023052588467 H 0.0 **** 0.06
23986 C 157.2143073967195 8.364907963567134 72.2750767540104 C 0.0 **** -0.24
23987 H 156.66382089695844 9.012931043269049 72.95727675612392 H 0.0 **** 0.06
23988 H 158.0830992030497 8.897779530730006 71.888431142037 H 0.0 **** 0.06
23989 H 156.56727195123375 8.075986961286304 71.44674413594959 H 0.0 **** 0.06
23990 H 157.54303753563613 7.472934318983192 72.80785498193114 H 0.0 **** 0.06
23991 C 15.562982258156808 185.3792366574425 190.99084733792614 C 0.0 **** -0.24
23992 H 15.4324696245464 186.45973494584194 190.921962960663 H 0.0 **** 0.06
23993 H 14.752882075323555 184.88090656221334 190.45779766164836 H 0.0 **** 0.06
23994 H 15.548059152729934 185.07803984263737 192.03833763268725 H 0.0 **** 0.06
23995 H 16.51791004635291 185.1003165897371 190.54594100651195 H 0.0 **** 0.06
23996 C 184.6106001773236 198.02726714466368 69.78417756538029 C 0.0 **** -0.24
23997 H 184.52299466495083 198.38325414720643 68.75701122632059 H 0.0 **** 0.06
23998 H 184.509916036694 198.86845265436529 70.46903284640852 H 0.0 **** 0.06
23999 H 185.58453365004178 197.55812666054942 69.92400579946475 H 0.0 **** 0.06
24000 H 183.82447677886327 197.29941128312345 69.98295374571806 H 0.0 **** 0.06
24001 C 101.00652513115323 158.17021024397877 20.25325729884679 C 0.0 **** -0.24
24002 H 101.16726306003626 158.72790412297604 19.330751478609386 H 0.0 **** 0.06
24003 H 100.83575778305696 157.12021319262743 20.01784739210484 H 0.0 **** 0.06
24004 H 100.13666250414524 158.57231045603962 20.7737825973862 H 0.0 **** 0.06
24005 H 101.88610373248015 158.26177617353477 20.890857729632557 H 0.0 **** 0.06
24006 C 198.17322418810969 134.64740792313904 105.95688825960218 C 0.0 **** -0.24
24007 H 197.13809004984773 134.42394880016008 106.21821851121899 H 0.0 **** 0.06
24008 H 198.63258769254622 133.76597622726337 105.51069496662421 H 0.0 **** 0.06
24009 H 198.72167444598415 134.92902957404954 106.85594148503799 H 0.0 **** 0.06
24010 H 198.19702740917216 135.47174477012118 105.24339801855933 H 0.0 **** 0.06
24011 C 9.198735752198104 42.44826541104861 216.70564641069242 C 0.0 **** -0.24
24012 H 8.616685532327551 41.786329507415786 217.34585303024562 H 0.0 **** 0.06
24013 H 10.216305789616541 42.06552142676992 216.61759855390784 H 0.0 **** 0.06
24014 H 9.222358418821102 43.44713122862325 217.1417337767972 H 0.0 **** 0.06
24015 H 8.740876901265153 42.49369391782075 215.7178515692507 H 0.0 **** 0.06
24016 C 88.17753458933817 191.5977803030374 70.94182407719495 C 0.0 **** -0.24
24017 H 88.04762074290528 191.0303038185562 70.02023361989205 H 0.0 **** 0.06
24018 H 87.76857424948304 191.0297490831693 71.77788814414623 H 0.0 **** 0.06
24019 H 87.65617988140468 192.55035298882845 70.85933984851198 H 0.0 **** 0.06
24020 H 89.23972853343044 191.77845045880878 71.10973915513216 H 0.0 **** 0.06
24021 C 184.6464581047471 182.5897082045094 76.28621641469738 C 0.0 **** -0.24
24022 H 184.56181607197098 183.48617279010617 76.9009489744347 H 0.0 **** 0.06
24023 H 185.00587005710972 182.86365757843745 75.2932411070181 H 0.0 **** 0.06
24024 H 183.66897986216617 182.11554569323846 76.20091503238552 H 0.0 **** 0.06
24025 H 185.3479707893567 181.89675612665033 76.74846253064698 H 0.0 **** 0.06
24026 C 93.64427017887584 113.20522187233773 209.75510652861016 C 0.0 **** -0.24
24027 H 93.12450919690986 112.28015550896093 209.50826678291673 H 0.0 **** 0.06
24028 H 93.84234062433859 113.76538858720384 208.84126273052252 H 0.0 **** 0.06
24029 H 94.58759731476908 112.97148531938733 210.24915539594008 H 0.0 **** 0.06
24030 H 93.02347897218306 113.80382807235937 210.42120788709823 H 0.0 **** 0.06
24031 C 107.88176086978763 59.46218137125939 40.08297728323885 C 0.0 **** -0.24
24032 H 108.64350385742586 59.06344049149496 40.75287538495611 H 0.0 **** 0.06
24033 H 107.2866698893896 58.64289106142198 39.68024009741811 H 0.0 **** 0.06
24034 H 108.36415091270516 59.998198171105116 39.26433022318177 H 0.0 **** 0.06
24035 H 107.23560078628793 60.14608200034449 40.63339731778467 H 0.0 **** 0.06
24036 C 142.03802156839424 165.3344784068384 126.37641587394022 C 0.0 **** -0.24
24037 H 142.4009871693176 166.07943786760256 125.6673767115651 H 0.0 **** 0.06
24038 H 141.21017452448848 164.78255303798812 125.93055288300461 H 0.0 **** 0.06
24039 H 141.69578734093534 165.83365693635778 127.28290065839819 H 0.0 **** 0.06
24040 H 142.84519527628453 164.64576087938065 126.62349863159857 H 0.0 **** 0.06
24041 C 160.12317677208767 67.88331108687139 33.65201601843238 C 0.0 **** -0.24
24042 H 161.06058132606168 68.41517251993724 33.81441445667083 H 0.0 **** 0.06
24043 H 159.89749733097295 67.8630280360689 32.58544790618727 H 0.0 **** 0.06
24044 H 159.3202340376249 68.39407139242131 34.184162636833605 H 0.0 **** 0.06
24045 H 160.21504864958493 66.86333274476576 34.024010454843705 H 0.0 **** 0.06
24046 C 7.916191768161397 78.14594174511251 34.23199637050334 C 0.0 **** -0.24
24047 H 7.319757726777908 78.0566821769961 35.13936194290322 H 0.0 **** 0.06
24048 H 8.253086027605235 79.17720660707943 34.11896448323917 H 0.0 **** 0.06
24049 H 7.312064699301629 77.86511873190182 33.369849028057644 H 0.0 **** 0.06
24050 H 8.781797759611635 77.48582743085007 34.30012509304049 H 0.0 **** 0.06
24051 C 154.0707858391246 146.05060989311232 34.17520029912822 C 0.0 **** -0.24
24052 H 153.2210365077505 146.55183308417793 34.63786703732032 H 0.0 **** 0.06
24053 H 154.94831718023931 146.16198549927128 34.81275843033971 H 0.0 **** 0.06
24054 H 154.26963635515392 146.4967641212806 33.201089934140214 H 0.0 **** 0.06
24055 H 153.8440235816351 144.99152974111388 34.05045553620732 H 0.0 **** 0.06
24056 C 180.06224020163427 145.51960340306954 107.61315091889672 C 0.0 **** -0.24
24057 H 180.24056331596532 144.52922229613455 107.1949257911346 H 0.0 **** 0.06
24058 H 180.51786096509335 146.2728470530197 106.96896469461426 H 0.0 **** 0.06
24059 H 180.50287205271547 145.5772793710438 108.60883319961418 H 0.0 **** 0.06
24060 H 178.9898319644579 145.6985663282291 107.67964869261719 H 0.0 **** 0.06
24061 C 108.65394637200927 122.33908547410174 29.367493368069447 C 0.0 **** -0.24
24062 H 108.92553485453845 121.95974757110214 30.353185311604562 H 0.0 **** 0.06
24063 H 108.54234328937997 121.50410681318338 28.67601197342269 H 0.0 **** 0.06
24064 H 109.43542013914748 123.00854061560288 29.008245962327322 H 0.0 **** 0.06
24065 H 107.71151210405355 122.88311970912629 29.436046640214855 H 0.0 **** 0.06
24066 C 174.44329892556271 179.96570599203744 170.96664559256635 C 0.0 **** -0.24
24067 H 174.77659621268458 180.4430815934877 171.88814849048373 H 0.0 **** 0.06
24068 H 174.35756734560616 180.71449479629146 170.17937717912724 H 0.0 **** 0.06
24069 H 173.47284023737626 179.49734901273342 171.1310408854913 H 0.0 **** 0.06
24070 H 175.16699072741847 179.206132975306 170.66951404002964 H 0.0 **** 0.06
24071 C 126.14976020592633 76.05183100780357 103.59349293202597 C 0.0 **** -0.24
24072 H 125.87184702321326 76.7700169211102 102.82227092215571 H 0.0 **** 0.06
24073 H 126.30351115633636 76.5750638898478 104.53753855701858 H 0.0 **** 0.06
24074 H 127.0704888595078 75.54614908727461 103.30388170072628 H 0.0 **** 0.06
24075 H 125.35269914760272 75.31819209576031 103.70968559348499 H 0.0 **** 0.06
24076 C 38.3363884688801 33.335560148340804 147.7595614538451 C 0.0 **** -0.24
24077 H 39.41703222961513 33.20085902958357 147.7220142194011 H 0.0 **** 0.06
24078 H 38.10811270078415 34.36953059893759 148.02202945457998 H 0.0 **** 0.06
24079 H 37.91259503035903 32.66795204867549 148.51020364198786 H 0.0 **** 0.06
24080 H 37.90734688819239 33.10513260905596 146.78450832480792 H 0.0 **** 0.06
24081 C 67.44831549306166 214.35787603605985 87.0664288818009 C 0.0 **** -0.24
24082 H 66.88975666528631 215.27641463943752 87.25041809688469 H 0.0 **** 0.06
24083 H 68.39832057866279 214.60014434655744 86.5885433675486 H 0.0 **** 0.06
24084 H 66.86827050383602 213.70576513994655 86.41350520728736 H 0.0 **** 0.06
24085 H 67.63559293425865 213.85083121571176 88.01252234048292 H 0.0 **** 0.06
24086 C 214.6440095935928 34.90457456535269 23.163270235215805 C 0.0 **** -0.24
24087 H 214.06051424201553 35.80026344556444 22.946279981618602 H 0.0 **** 0.06
24088 H 215.69808837549 35.170324560557745 23.24960108807511 H 0.0 **** 0.06
24089 H 214.51611015769996 34.183527939051984 22.357017419232477 H 0.0 **** 0.06
24090 H 214.3014663078383 34.466338343155925 24.100758502053537 H 0.0 **** 0.06
24091 C 185.11772763207992 89.83130987309262 31.07809698387655 C 0.0 **** -0.24
24092 H 184.36557505469443 89.57237264924002 31.822432344659575 H 0.0 **** 0.06
24093 H 185.2584320295364 88.99219560621374 30.396546060074343 H 0.0 **** 0.06
24094 H 186.0607163597836 90.05506422721975 31.577952365796023 H 0.0 **** 0.06
24095 H 184.78793714654222 90.70543090500682 30.516837872783697 H 0.0 **** 0.06
24096 C 185.49510402633373 146.1887999675638 170.239860988881 C 0.0 **** -0.24
24097 H 185.2728837722001 145.19342244790698 170.62714244118138 H 0.0 **** 0.06
24098 H 186.55623069398587 146.25510784496544 169.99663347867525 H 0.0 **** 0.06
24099 H 185.24706389042268 146.93459011037254 170.99430069505408 H 0.0 **** 0.06
24100 H 184.90419324061656 146.36834570189455 169.34160661947342 H 0.0 **** 0.06
24101 C 82.13277319738161 195.57935671956454 2.17506931505622 C 0.0 **** -0.24
24102 H 82.59360191578462 195.249123921067 1.2442437011381742 H 0.0 **** 0.06
24103 H 81.21660192000824 195.0141077370628 2.3469934860689534 H 0.0 **** 0.06
24104 H 81.89783323701037 196.64140038982993 2.107900971478614 H 0.0 **** 0.06
24105 H 82.82303236198264 195.4111890087698 3.0023310996806742 H 0.0 **** 0.06
24106 C 63.53935019783853 111.11215675453717 205.68617030962452 C 0.0 **** -0.24
24107 H 64.61897029360802 111.21281404226109 205.57772822739113 H 0.0 **** 0.06
24108 H 63.196250409835926 110.2452339515121 205.1207735108825 H 0.0 **** 0.06
24109 H 63.050343949876094 112.0098630962461 205.30786177088066 H 0.0 **** 0.06
24110 H 63.290914749682514 110.98013462679184 206.74027047536023 H 0.0 **** 0.06
24111 C 171.16920195084464 94.07379177343599 167.57557726377416 C 0.0 **** -0.24
24112 H 170.29904166481288 93.90489002841282 166.94060054974824 H 0.0 **** 0.06
24113 H 170.97821523996737 94.9189185279157 168.23621783612555 H 0.0 **** 0.06
24114 H 172.03691237418673 94.28844413077822 166.95223376771617 H 0.0 **** 0.06
24115 H 171.3613169880649 93.18166489768511 168.1719559965112 H 0.0 **** 0.06
24116 C 170.60502134343378 197.68559601407813 55.62036056890251 C 0.0 **** -0.24
24117 H 171.05245564395761 198.03795193140772 54.69167226324642 H 0.0 **** 0.06
24118 H 169.90950274353347 196.87406722382306 55.40323374051847 H 0.0 **** 0.06
24119 H 170.06980635354165 198.50486699113094 56.099586094207666 H 0.0 **** 0.06
24120 H 171.38878332039093 197.32416353039994 56.28687679361539 H 0.0 **** 0.06
24121 C 9.336745444519963 149.66742881131734 164.88774197154572 C 0.0 **** -0.24
24122 H 8.756430011440642 148.96896525194217 164.28480433642895 H 0.0 **** 0.06
24123 H 8.826770770709047 149.83928787087837 165.83565358826894 H 0.0 **** 0.06
24124 H 9.43941828156784 150.61148890556007 164.3534321834267 H 0.0 **** 0.06
24125 H 10.325129862742443 149.2478729856457 165.07710220824262 H 0.0 **** 0.06
24126 C 22.144104771013076 137.5808069327444 86.82833278993242 C 0.0 **** -0.24
24127 H 21.540515055086757 136.69538854567253 86.62776639622673 H 0.0 **** 0.06
24128 H 21.532421159194598 138.33261235132676 87.32623930156787 H 0.0 **** 0.06
24129 H 22.521551364113805 137.98293515845438 85.8889435888738 H 0.0 **** 0.06
24130 H 22.982666621321698 137.3104053754118 87.47133137903354 H 0.0 **** 0.06
24131 C 97.72476794188897 58.97340894915595 24.536379255768438 C 0.0 **** -0.24
24132 H 98.5242069481801 58.89692011020145 23.799540829995166 H 0.0 **** 0.06
24133 H 97.94516548344906 59.786600018409615 25.228138859987368 H 0.0 **** 0.06
24134 H 97.64834864165705 58.03666999694343 25.087382289017242 H 0.0 **** 0.06
24135 H 96.7814159748349 59.173859866838114 24.027320662188814 H 0.0 **** 0.06
24136 C 70.26187594907935 35.89990977346058 52.126433684703386 C 0.0 **** -0.24
24137 H 71.26918118828786 36.18177973701184 52.434558061405426 H 0.0 **** 0.06
24138 H 69.66347914495066 36.79948695115043 51.97600983659413 H 0.0 **** 0.06
24139 H 69.80422955191165 35.28379920631684 52.90003349757728 H 0.0 **** 0.06
24140 H 70.31137073984218 35.33690267774874 51.1951043173633 H 0.0 **** 0.06
24141 C 180.6631180839593 130.87256276427502 209.3454988292805 C 0.0 **** -0.24
24142 H 181.549857440275 130.67333521734872 209.94699931145811 H 0.0 **** 0.06
24143 H 180.34850832252238 129.9566032879506 208.84655288816242 H 0.0 **** 0.06
24144 H 180.89519877222187 131.63282151621542 208.59887218811707 H 0.0 **** 0.06
24145 H 179.85997453207585 131.2302283866141 209.99017850350137 H 0.0 **** 0.06
24146 C 124.74554616449736 207.50434234478604 72.95855743104352 C 0.0 **** -0.24
24147 H 124.81270966226951 207.80987855487143 71.91448472141576 H 0.0 **** 0.06
24148 H 124.0636622189614 206.65756965405137 73.04592709099819 H 0.0 **** 0.06
24149 H 124.3727220561744 208.3346818531546 73.55755626868569 H 0.0 **** 0.06
24150 H 125.73326925561405 207.21279634194485 73.31625166862358 H 0.0 **** 0.06
24151 C 43.700188643432554 32.558175783347906 182.00209123652326 C 0.0 **** -0.24
24152 H 43.81314720574021 32.07347640399291 182.97172055107842 H 0.0 **** 0.06
24153 H 44.36756644312268 32.086870997670246 181.28004634792597 H 0.0 **** 0.06
24154 H 43.950790761227225 33.61494691950759 182.09340650168986 H 0.0 **** 0.06
24155 H 42.66865206700879 32.457909129370734 181.6638176285549 H 0.0 **** 0.06
24156 C 174.0845299051091 181.69829554397612 44.89945001339896 C 0.0 **** -0.24
24157 H 173.8303225896694 182.7552872557785 44.82825114673966 H 0.0 **** 0.06
24158 H 173.4249789152903 181.21345403669204 45.61964328773598 H 0.0 **** 0.06
24159 H 175.11888049666274 181.5949166864741 45.226177405820295 H 0.0 **** 0.06
24160 H 173.96372148212163 181.22904863663484 43.92287548576036 H 0.0 **** 0.06
24161 C 153.63126717277441 166.93197052762406 78.68046217943343 C 0.0 **** -0.24
24162 H 154.5220044022779 167.29990083756556 79.18858282702205 H 0.0 **** 0.06
24163 H 152.96594072056854 167.76759467516445 78.46224407701543 H 0.0 **** 0.06
24164 H 153.1176232191321 166.2147712817697 79.32005912557081 H 0.0 **** 0.06
24165 H 153.9196711844404 166.44512247180177 77.74878829059112 H 0.0 **** 0.06
24166 C 106.56460536519462 29.345328630404964 148.20628494742544 C 0.0 **** -0.24
24167 H 106.4955119060299 28.57979870320173 147.43371510989743 H 0.0 **** 0.06
24168 H 107.54285533030465 29.824697980233935 148.15765176599086 H 0.0 **** 0.06
24169 H 106.4328471734032 28.886781820208995 149.1861506181413 H 0.0 **** 0.06
24170 H 105.78601042103155 30.092173347599143 148.04762166898018 H 0.0 **** 0.06
24171 C 202.27025043588702 92.77734435286885 53.439657372895354 C 0.0 **** -0.24
24172 H 202.78664274688856 91.8686519616914 53.749617470397524 H 0.0 **** 0.06
24173 H 202.3706488185512 92.90238172612823 52.361418085772584 H 0.0 **** 0.06
24174 H 202.7102068633728 93.6358142791467 53.94848827500326 H 0.0 **** 0.06
24175 H 201.21556001611006 92.70144881984976 53.700718845268 H 0.0 **** 0.06
24176 C 202.39305104093785 151.57681502629453 92.03945383207558 C 0.0 **** -0.24
24177 H 202.9731366791737 151.5491856925159 92.96180864838568 H 0.0 **** 0.06
24178 H 202.8485732502446 152.28226042645957 91.34454704698088 H 0.0 **** 0.06
24179 H 201.37335936641 151.89074062783146 92.26031063010647 H 0.0 **** 0.06
24180 H 202.37824971886542 150.58317213504682 91.59077145549169 H 0.0 **** 0.06
24181 C 96.55327802846348 109.55604686171294 111.42151189921759 C 0.0 **** -0.24
24182 H 96.041835984169 108.77405472234464 110.86012035281476 H 0.0 **** 0.06
24183 H 96.7972518240769 110.38287023426123 110.7544638990683 H 0.0 **** 0.06
24184 H 97.47012649919218 109.15333883875086 111.85149940992613 H 0.0 **** 0.06
24185 H 95.90408077416397 109.91335066895606 112.22076282852231 H 0.0 **** 0.06
24186 C 90.83218507449023 61.29666245681574 174.74190195535408 C 0.0 **** -0.24
24187 H 91.074994864081 60.71602025467263 173.85192489001804 H 0.0 **** 0.06
24188 H 89.93906368738202 60.88498597378543 175.21135992816733 H 0.0 **** 0.06
24189 H 90.64993512984755 62.33322974363466 174.45903388109826 H 0.0 **** 0.06
24190 H 91.66643858419032 61.251734370042584 175.4425186109449 H 0.0 **** 0.06
24191 C 63.9688511583734 42.77495545475884 11.294115614642806 C 0.0 **** -0.24
24192 H 63.75078817614971 42.66624797308691 12.35678694904911 H 0.0 **** 0.06
24193 H 65.03153961369907 42.9789123670335 11.160534281837698 H 0.0 **** 0.06
24194 H 63.38660952888934 43.60139482062189 10.8867253914744 H 0.0 **** 0.06
24195 H 63.70657592665211 41.85454570179908 10.773009372277201 H 0.0 **** 0.06
24196 C 33.04190954806273 212.45556996109997 187.60113131902216 C 0.0 **** -0.24
24197 H 34.06928655988429 212.46332903674022 187.23558319988527 H 0.0 **** 0.06
24198 H 32.813004526061775 211.47522697931734 188.01856306091076 H 0.0 **** 0.06
24199 H 32.36122396578901 212.66727726435653 186.7759202491476 H 0.0 **** 0.06
24200 H 32.924766768924286 213.21634236180986 188.37285410567452 H 0.0 **** 0.06
24201 C 179.37426315437995 100.96846657329593 51.39889748353664 C 0.0 **** -0.24
24202 H 178.58087804515856 100.82618506206222 50.66564843711947 H 0.0 **** 0.06
24203 H 179.27246226669996 100.22880076768763 52.19349626576307 H 0.0 **** 0.06
24204 H 179.30218970455724 101.96947232622813 51.82365509561032 H 0.0 **** 0.06
24205 H 180.34257228082367 100.84860313512502 50.91329031365575 H 0.0 **** 0.06
24206 C 92.86305236034765 124.88738767259763 75.86597673907649 C 0.0 **** -0.24
24207 H 93.92023578997494 124.85636907918165 75.6012349978384 H 0.0 **** 0.06
24208 H 92.64667564661688 125.81722265824654 76.39277572150696 H 0.0 **** 0.06
24209 H 92.62392657117805 124.04038179743544 76.50928230162977 H 0.0 **** 0.06
24210 H 92.26088601620499 124.83567677539126 74.95843344672492 H 0.0 **** 0.06
24211 C 10.797426089524265 112.542357955317 139.04313684832266 C 0.0 **** -0.24
24212 H 11.216493430971752 111.68155045651791 138.52195822996248 H 0.0 **** 0.06
24213 H 10.417394768425027 113.25934064411841 138.31522122149215 H 0.0 **** 0.06
24214 H 11.573813895646765 113.01390702845798 139.64571429981783 H 0.0 **** 0.06
24215 H 9.98367941234784 112.21427589950913 139.6898969638226 H 0.0 **** 0.06
24216 C 24.722706159420795 83.94902397739232 103.01285438693331 C 0.0 **** -0.24
24217 H 24.647066068076413 83.0890786606683 102.34747347117359 H 0.0 **** 0.06
24218 H 24.21828674756938 84.80249128660985 102.56149009966803 H 0.0 **** 0.06
24219 H 25.773311012319823 84.19080575024664 103.17507387259032 H 0.0 **** 0.06
24220 H 24.252375310487196 83.71128887002222 103.96717354417909 H 0.0 **** 0.06
24221 C 124.6360570267662 150.6238993347851 215.36321332945744 C 0.0 **** -0.24
24222 H 125.68161506796923 150.8460579249948 215.57783180137 H 0.0 **** 0.06
24223 H 124.35539092488864 151.07915921254636 214.41282491440808 H 0.0 **** 0.06
24224 H 124.00839290153993 151.02717142509846 216.15836018155102 H 0.0 **** 0.06
24225 H 124.49821298629001 149.54474845907578 215.30433611387423 H 0.0 **** 0.06
24226 C 180.32820326262024 57.812312755330666 8.231736374548646 C 0.0 **** -0.24
24227 H 180.6472624214153 58.83965847795331 8.404811909060584 H 0.0 **** 0.06
24228 H 181.1458208835943 57.24979913261656 7.778823557545735 H 0.0 **** 0.06
24229 H 179.46711891002408 57.80595796684136 7.562997635224349 H 0.0 **** 0.06
24230 H 180.05358400777652 57.352371725192384 9.181694622059709 H 0.0 **** 0.06
24231 C 167.14429316806917 143.20889982656308 63.7150331971454 C 0.0 **** -0.24
24232 H 167.15222106274067 143.0831181676724 64.79759232006428 H 0.0 **** 0.06
24233 H 166.8991688428435 144.24372984550155 63.47248410451725 H 0.0 **** 0.06
24234 H 166.39682481303478 142.54668924876086 63.278849365352116 H 0.0 **** 0.06
24235 H 168.12636513707974 142.96393042764555 63.31315293883631 H 0.0 **** 0.06
24236 C 2.283525093862977 117.23615097823868 4.234864184549352 C 0.0 **** -0.24
24237 H 1.5007456387020852 116.54398264065337 4.5454273131779175 H 0.0 **** 0.06
24238 H 1.8343403489806178 118.0816110533891 3.7136123588021803 H 0.0 **** 0.06
24239 H 2.976330633670557 116.72373368210889 3.5671133769449384 H 0.0 **** 0.06
24240 H 2.8221711715524407 117.59265558779857 5.1123720128057855 H 0.0 **** 0.06
24241 C 203.82913551850163 181.26152809124704 37.35325325349538 C 0.0 **** -0.24
24242 H 204.58760452025967 181.638543801527 38.03950180065857 H 0.0 **** 0.06
24243 H 204.15168201347575 181.43233006567334 36.32616582730509 H 0.0 **** 0.06
24244 H 202.88836465548908 181.78186112275353 37.53084504183278 H 0.0 **** 0.06
24245 H 203.69029360649245 180.19276261133902 37.51841202906945 H 0.0 **** 0.06
24246 C 39.63180331458557 96.88256758414406 40.59290962112044 C 0.0 **** -0.24
24247 H 38.59654479412265 97.15578118052258 40.386162720345226 H 0.0 **** 0.06
24248 H 40.290016648866015 97.40422908417474 39.897014047930725 H 0.0 **** 0.06
24249 H 39.753485022803204 95.80600820270053 40.47251610053104 H 0.0 **** 0.06
24250 H 39.88522514412972 97.16598302037227 41.61445120291597 H 0.0 **** 0.06
24251 C 159.33498768722268 8.43459228574119 77.37450210984889 C 0.0 **** -0.24
24252 H 160.1795591127756 9.038994378377609 77.04511884196631 H 0.0 **** 0.06
24253 H 159.35107283297017 8.350694928461706 78.4614122477293 H 0.0 **** 0.06
24254 H 159.40364313045035 7.44123623426718 76.93198622537915 H 0.0 **** 0.06
24255 H 158.40448928817614 8.908620544524055 77.06097685056767 H 0.0 **** 0.06
24256 C 185.2092015018729 206.54673977523078 24.14303305906607 C 0.0 **** -0.24
24257 H 185.3194819826761 207.05803980427135 25.099129092867656 H 0.0 **** 0.06
24258 H 186.1875695226709 206.44048366803085 23.67252607484572 H 0.0 **** 0.06
24259 H 184.55457589149782 207.1277995731607 23.49379893272652 H 0.0 **** 0.06
24260 H 184.77592208191163 205.560104365859 24.307083812536902 H 0.0 **** 0.06
24261 C 144.2700192188738 126.29848763375573 20.04411396697219 C 0.0 **** -0.24
24262 H 144.9625459452368 126.98752624129476 20.52846784782048 H 0.0 **** 0.06
24263 H 143.3761473980017 126.84049815161232 19.734983076991057 H 0.0 **** 0.06
24264 H 143.992953295333 125.5100859457752 20.74423852452685 H 0.0 **** 0.06
24265 H 144.74888155202632 125.8579823503763 19.17055740329522 H 0.0 **** 0.06
24266 C 12.037438136800318 54.34705840324699 147.845768511029 C 0.0 **** -0.24
24267 H 11.755127100225366 55.392958622895094 147.72610505445016 H 0.0 **** 0.06
24268 H 11.86847468618329 54.04252079112979 148.87931694034853 H 0.0 **** 0.06
24269 H 13.091830697165548 54.2245100010324 147.59867268022066 H 0.0 **** 0.06
24270 H 11.432969392694787 53.72994731049704 147.18078912908373 H 0.0 **** 0.06
24271 C 44.73808476282855 104.98194584832419 87.2510000461578 C 0.0 **** -0.24
24272 H 45.07660025646243 106.00460116609588 87.08410336817246 H 0.0 **** 0.06
24273 H 45.56067010732761 104.29130303799934 87.0583422118645 H 0.0 **** 0.06
24274 H 43.91118405064759 104.75847582235315 86.57708128813863 H 0.0 **** 0.06
24275 H 44.406320142170614 104.872857744246 88.28228910117883 H 0.0 **** 0.06
24276 C 4.80658468269484 113.46225429611634 22.234845811618868 C 0.0 **** -0.24
24277 H 4.565649626897418 114.501618918093 22.4562427521941 H 0.0 **** 0.06
24278 H 5.055449646171695 113.36382589834226 21.17832973847311 H 0.0 **** 0.06
24279 H 3.9470352938672093 112.83268553486415 22.466110095974955 H 0.0 **** 0.06
24280 H 5.65832523615785 113.1505384464924 22.840065944462253 H 0.0 **** 0.06
24281 C 68.86245742562323 210.07193430122032 144.95103374437548 C 0.0 **** -0.24
24282 H 68.07278178324992 209.99732589646337 144.20413677429713 H 0.0 **** 0.06
24283 H 69.25748343481007 211.08883725223487 144.96113390075186 H 0.0 **** 0.06
24284 H 69.6611606687444 209.37292704692993 144.70611110800996 H 0.0 **** 0.06
24285 H 68.4564516497569 209.83085419116406 145.9333167090619 H 0.0 **** 0.06
24286 C 121.53427088971914 142.56844953438025 51.257007693808376 C 0.0 **** -0.24
24287 H 121.2158570238769 143.6033363757693 51.385833106648775 H 0.0 **** 0.06
24288 H 121.79933625122167 142.39686782507152 50.214111153022245 H 0.0 **** 0.06
24289 H 120.72027044468125 141.90105933188153 51.540450340347704 H 0.0 **** 0.06
24290 H 122.39974236360946 142.37414159424088 51.88960920339882 H 0.0 **** 0.06
24291 C 120.83252869903511 16.613388059270903 28.901194803415024 C 0.0 **** -0.24
24292 H 120.46312707642521 17.626380104133062 29.061459266679137 H 0.0 **** 0.06
24293 H 121.11921529212044 16.175643389305492 29.85740583593541 H 0.0 **** 0.06
24294 H 121.69927130948197 16.6439524194204 28.240948482880427 H 0.0 **** 0.06
24295 H 120.04885794601564 16.008934004212392 28.444794126571395 H 0.0 **** 0.06
24296 C 142.03445960414905 197.03728388891454 58.934597360786086 C 0.0 **** -0.24
24297 H 141.62563785467944 196.54042073732333 58.05427075245376 H 0.0 **** 0.06
24298 H 141.87548516082467 196.4093970092903 59.81232474456374 H 0.0 **** 0.06
24299 H 141.53392696412953 197.9946292898922 59.077215676477294 H 0.0 **** 0.06
24300 H 143.10292583681354 197.2022436179543 58.794517597537606 H 0.0 **** 0.06
24301 C 213.5277382740888 125.25492125406988 64.55233973490164 C 0.0 **** -0.24
24302 H 214.47528713866083 124.97492608439647 65.01169469185035 H 0.0 **** 0.06
24303 H 213.674465219072 126.13600538688395 63.92659848406015 H 0.0 **** 0.06
24304 H 212.7993291422418 125.47913613327093 65.33084146332465 H 0.0 **** 0.06
24305 H 213.163749916233 124.43074630088547 63.939129939601 H 0.0 **** 0.06
24306 C 58.516929770079614 20.146550555320573 95.00823364294484 C 0.0 **** -0.24
24307 H 58.8019930463867 21.192465812678336 95.1183350796411 H 0.0 **** 0.06
24308 H 58.22661994249026 19.744874704684776 95.97970925945447 H 0.0 **** 0.06
24309 H 59.36355620625072 19.57990295516842 94.6190160524801 H 0.0 **** 0.06
24310 H 57.67832719708436 20.068724600463554 94.31698407468764 H 0.0 **** 0.06
24311 C 66.40879163719478 69.16247068620731 123.47959268466172 C 0.0 **** -0.24
24312 H 66.26052838115822 68.88525074909768 122.43612335470561 H 0.0 **** 0.06
24313 H 66.44115244704159 68.26315215148492 124.09450087689993 H 0.0 **** 0.06
24314 H 65.58452547143304 69.79767647233882 123.80698551834041 H 0.0 **** 0.06
24315 H 67.34773301050274 69.70686941303916 123.58045527064291 H 0.0 **** 0.06
24316 C 82.77826407837019 194.8767302296555 99.60699830892214 C 0.0 **** -0.24
24317 H 81.99683355996088 194.22060521214263 99.22288575682855 H 0.0 **** 0.06
24318 H 83.33681857782314 195.30282122848473 98.77286313455171 H 0.0 **** 0.06
24319 H 83.45384287918223 194.30456380995852 100.24289925211194 H 0.0 **** 0.06
24320 H 82.32499617327268 195.67950526067062 100.18875306519134 H 0.0 **** 0.06
24321 C 174.9871594248732 165.15382720720984 197.13338107812783 C 0.0 **** -0.24
24322 H 176.01714559197674 165.39633629163097 196.87111407224856 H 0.0 **** 0.06
24323 H 174.98103681748938 164.4845052838744 197.9940377021142 H 0.0 **** 0.06
24324 H 174.50282847748517 164.66432518724073 196.28844768283184 H 0.0 **** 0.06
24325 H 174.4495562952114 166.06918525100514 197.37932345174346 H 0.0 **** 0.06
24326 C 87.81731841429172 144.51380386391088 19.774179077227927 C 0.0 **** -0.24
24327 H 87.39469763367879 143.60870417909183 20.20929211614282 H 0.0 **** 0.06
24328 H 88.17813653858985 145.1655035755045 20.570334787497984 H 0.0 **** 0.06
24329 H 87.04984364057725 145.03275876458986 19.198692810325213 H 0.0 **** 0.06
24330 H 88.6458876844244 144.2485613712496 19.117763419606376 H 0.0 **** 0.06
24331 C 126.83663794897286 198.9354044926825 31.505648171700784 C 0.0 **** -0.24
24332 H 126.91453267187133 199.1595647058677 32.56952586601298 H 0.0 **** 0.06
24333 H 125.82082342165718 199.13726956088885 31.166183191222785 H 0.0 **** 0.06
24334 H 127.07404576328689 197.88504398654558 31.338344659582845 H 0.0 **** 0.06
24335 H 127.53667678676071 199.5600324531429 30.951486949839648 H 0.0 **** 0.06
24336 C 163.39090721693861 170.5042184753815 94.23225837215529 C 0.0 **** -0.24
24337 H 163.33872627507895 170.856198812237 95.2627000899974 H 0.0 **** 0.06
24338 H 164.32460184409433 170.83714799414872 93.78085457681959 H 0.0 **** 0.06
24339 H 162.54979810991716 170.9081895249381 93.66854922433595 H 0.0 **** 0.06
24340 H 163.34700109208234 169.4147994117307 94.21813367150253 H 0.0 **** 0.06
24341 C 162.61332427362714 110.51333117793719 107.06018651881584 C 0.0 **** -0.24
24342 H 162.62446143960983 109.5270419638117 107.52574716180982 H 0.0 **** 0.06
24343 H 162.47159618645884 111.2751877204946 107.82647686061313 H 0.0 **** 0.06
24344 H 161.79607048169868 110.56503104074882 106.34072109073878 H 0.0 **** 0.06
24345 H 163.55956205420574 110.68286535124285 106.54823307252121 H 0.0 **** 0.06
24346 C 43.20681978085415 193.11756036137223 124.33886784048862 C 0.0 **** -0.24
24347 H 42.808415293004344 192.3362963801839 124.98630169445461 H 0.0 **** 0.06
24348 H 42.81866408583036 192.9853289154151 123.32819570606493 H 0.0 **** 0.06
24349 H 44.29485115205608 193.05435845357937 124.3215649258663 H 0.0 **** 0.06
24350 H 42.906200462240236 194.0933195732235 124.7187811207966 H 0.0 **** 0.06
24351 C 14.666853242465436 195.3620968043733 22.319757742513218 C 0.0 **** -0.24
24352 H 14.089593386802619 194.61939558605727 22.869550502674798 H 0.0 **** 0.06
24353 H 14.132613550328529 195.63702964643434 21.410768190252114 H 0.0 **** 0.06
24354 H 15.639364758347995 194.94481926605013 22.057454569998484 H 0.0 **** 0.06
24355 H 14.806601500131165 196.24649356619068 22.941231736889335 H 0.0 **** 0.06
24356 C 36.34916398232359 8.036676602951701 0.046011807386015846 C 0.0 **** -0.24
24357 H 36.01492457980106 7.002336513406021 -0.02257176730431354 H 0.0 **** 0.06
24358 H 35.49480349998369 8.7034978352672 -0.07840997624118984 H 0.0 **** 0.06
24359 H 37.08135052805851 8.235004602210921 -0.7373897635564575 H 0.0 **** 0.06
24360 H 36.805121342798614 8.207758995836059 1.0209306906678677 H 0.0 **** 0.06
24361 C 189.57971966293076 4.917184813877157 76.75637288398212 C 0.0 **** -0.24
24362 H 190.44675021577706 4.383646627662472 76.36565536804682 H 0.0 **** 0.06
24363 H 189.88816944702637 5.549592008160687 77.5892270239977 H 0.0 **** 0.06
24364 H 188.83711206688136 4.198220221669885 77.10144388978608 H 0.0 **** 0.06
24365 H 189.14843823333715 5.53542589338042 75.96933449534959 H 0.0 **** 0.06
24366 C 164.56506673254046 155.31815374966266 190.10090953151112 C 0.0 **** -0.24
24367 H 164.93463768968715 154.4320779037671 189.58544854566327 H 0.0 **** 0.06
24368 H 164.05607727126176 155.96701579387104 189.38833959933402 H 0.0 **** 0.06
24369 H 165.40216181518502 155.85388062282004 190.54802212228753 H 0.0 **** 0.06
24370 H 163.86622307813167 155.01748707151512 190.8818315767964 H 0.0 **** 0.06
24371 C 135.68309926213493 174.12384031798757 143.44976439103692 C 0.0 **** -0.24
24372 H 134.6637723308528 174.47439810117118 143.28507377083616 H 0.0 **** 0.06
24373 H 136.06161216750326 173.66646304336908 142.5353355228317 H 0.0 **** 0.06
24374 H 135.68799388219162 173.38844377031296 144.25387513313655 H 0.0 **** 0.06
24375 H 136.31731047411125 174.96715262947555 143.72383487017328 H 0.0 **** 0.06
24376 C 51.17487205611991 97.8979800518897 26.81504337362243 C 0.0 **** -0.24
24377 H 50.32960852368274 97.76973096175027 26.138579867314263 H 0.0 **** 0.06
24378 H 52.1039821643937 97.87182100032362 26.245390625883502 H 0.0 **** 0.06
24379 H 51.17688274284518 97.09306199329552 27.550647226339677 H 0.0 **** 0.06
24380 H 51.08850651515678 98.85700107765342 27.326361093844667 H 0.0 **** 0.06
24381 C 184.83863188117783 41.0102501901969 104.79976653057771 C 0.0 **** -0.24
24382 H 183.93662847809992 41.59613012137456 104.98157339109191 H 0.0 **** 0.06
24383 H 184.7211491155067 40.43926174612652 103.87939480511683 H 0.0 **** 0.06
24384 H 185.00151525436388 40.32753252137847 105.6331522229275 H 0.0 **** 0.06
24385 H 185.69327492620417 41.6800599259317 104.70605252014651 H 0.0 **** 0.06
24386 C 163.9889861599389 9.490203286420552 0.24913357818562076 C 0.0 **** -0.24
24387 H 164.8825942196371 10.092455153190684 0.4105846476425512 H 0.0 **** 0.06
24388 H 163.88158581869152 9.278100679301275 -0.8151003268344255 H 0.0 **** 0.06
24389 H 163.11420844162564 10.037430786280453 0.6005523384548326 H 0.0 **** 0.06
24390 H 164.07776693598808 8.55370050868737 0.800059765136993 H 0.0 **** 0.06
24391 C 135.15177195126597 193.02543450599705 216.05436226678566 C 0.0 **** -0.24
24392 H 135.03122671560055 192.88515357466576 217.1279609913833 H 0.0 **** 0.06
24393 H 135.82613585655173 193.86314488770853 215.87106793923428 H 0.0 **** 0.06
24394 H 134.18137079369956 193.23495193195023 215.6039289371571 H 0.0 **** 0.06
24395 H 135.56899862212987 192.11948212679985 215.61371916458123 H 0.0 **** 0.06
24396 C 55.03296415557594 179.31938242774598 178.93693957241908 C 0.0 **** -0.24
24397 H 56.10850398329498 179.1993623414475 178.808477953257 H 0.0 **** 0.06
24398 H 54.702644297051734 180.21575970120728 178.4137659100116 H 0.0 **** 0.06
24399 H 54.80318411076627 179.41112293325213 179.99880065492076 H 0.0 **** 0.06
24400 H 54.519295377826495 178.44880727284936 178.528887583298 H 0.0 **** 0.06
24401 C 21.991837671246856 191.15255690158645 66.27828412444906 C 0.0 **** -0.24
24402 H 22.781949591038313 191.8773305535699 66.08396626316177 H 0.0 **** 0.06
24403 H 21.925582490524903 190.96517844798177 67.35068037914135 H 0.0 **** 0.06
24404 H 22.218405751979674 190.22122192037756 65.75873219870294 H 0.0 **** 0.06
24405 H 21.041367675044626 191.54722408126474 65.91854568038133 H 0.0 **** 0.06
24406 C 157.38224072996206 97.20019326148501 136.74906774963313 C 0.0 **** -0.24
24407 H 157.30282922689548 98.23933017872103 136.42835848609832 H 0.0 **** 0.06
24408 H 156.7196914041844 97.03105968940865 137.59963192246698 H 0.0 **** 0.06
24409 H 158.41024473924443 96.98715253473505 137.04204307417774 H 0.0 **** 0.06
24410 H 157.09397581623762 96.54405919590577 135.9280753280628 H 0.0 **** 0.06
24411 C 94.11604055232611 119.98392907817197 130.1572888461278 C 0.0 **** -0.24
24412 H 93.9710812871027 119.07081802991326 130.73506836316432 H 0.0 **** 0.06
24413 H 94.8632059358359 120.60884637496162 130.64703919836143 H 0.0 **** 0.06
24414 H 93.1731238128943 120.52685345356718 130.09336483580887 H 0.0 **** 0.06
24415 H 94.45675117347169 119.72919845424565 129.15368298717658 H 0.0 **** 0.06
24416 C 113.22380962672456 215.36992404175322 187.31824295820917 C 0.0 **** -0.24
24417 H 113.54230563361797 215.20604444210397 186.2884614678037 H 0.0 **** 0.06
24418 H 112.44203420363537 216.13004220056575 187.33914106733926 H 0.0 **** 0.06
24419 H 114.07387343801814 215.70452776882854 187.91202320624467 H 0.0 **** 0.06
24420 H 112.83554816596215 214.4380222063422 187.73007563737377 H 0.0 **** 0.06
24421 C 2.9308895815599527 5.110947356871236 29.07282446114266 C 0.0 **** -0.24
24422 H 2.0420804951319695 5.573172135586788 28.64234587541813 H 0.0 **** 0.06
24423 H 2.9820585439136664 5.34436226226385 30.136132671163438 H 0.0 **** 0.06
24424 H 3.8184602392133584 5.4969353611470595 28.571807775265768 H 0.0 **** 0.06
24425 H 2.87954530688053 4.030560101881491 28.938674256449303 H 0.0 **** 0.06
24426 C 154.18989209769717 180.11174154764203 95.41432865857591 C 0.0 **** -0.24
24427 H 153.31847230071992 179.46066717947542 95.49537105878055 H 0.0 **** 0.06
24428 H 154.15332301279693 180.86536775571517 96.20169413684893 H 0.0 **** 0.06
24429 H 154.18771821264187 180.60247121459628 94.44068302654033 H 0.0 **** 0.06
24430 H 155.09741831053486 179.517804610603 95.52035325988 H 0.0 **** 0.06
24431 C 209.27065229166413 43.27141853467005 125.97266795081424 C 0.0 **** -0.24
24432 H 208.81705722704112 42.4857578759768 125.36731515578145 H 0.0 **** 0.06
24433 H 210.3563199009516 43.20217562550921 125.90260081866137 H 0.0 **** 0.06
24434 H 208.96423470870312 43.15227910846741 127.0119947530041 H 0.0 **** 0.06
24435 H 208.94357146171777 44.244556104968524 125.60698703825 H 0.0 **** 0.06
24436 C 109.41774432626526 48.29664879827199 159.47865063263214 C 0.0 **** -0.24
24437 H 108.79357051948396 47.72795477326042 160.1684218361193 H 0.0 **** 0.06
24438 H 108.87651552485748 48.453589917247854 158.54582964242013 H 0.0 **** 0.06
24439 H 110.33491574474557 47.74238754459124 159.27797627396757 H 0.0 **** 0.06
24440 H 109.6650255978174 49.260468843462746 159.92290733659823 H 0.0 **** 0.06
24441 C 206.64860627291952 94.60160091108223 25.06948171971449 C 0.0 **** -0.24
24442 H 205.611091825941 94.26851104684191 25.039664707433147 H 0.0 **** 0.06
24443 H 207.30804200071063 93.74840067197952 24.904842598482617 H 0.0 **** 0.06
24444 H 206.8610065160158 95.04301167508599 26.042380883804725 H 0.0 **** 0.06
24445 H 206.81405505339845 95.34428931617013 24.288559327633024 H 0.0 **** 0.06
24446 C 30.019161163892278 32.27110359495015 103.81703282439666 C 0.0 **** -0.24
24447 H 30.76033080972661 32.74015527782859 103.16920242437043 H 0.0 **** 0.06
24448 H 30.391003084208393 31.30254192897229 104.15109272917282 H 0.0 **** 0.06
24449 H 29.089610097648176 32.134359773690846 103.26606726361958 H 0.0 **** 0.06
24450 H 29.83847229829638 32.909824085188745 104.68225234842039 H 0.0 **** 0.06
24451 C 114.09605491970065 92.72479147433252 99.54551534915147 C 0.0 **** -0.24
24452 H 113.35554054774467 91.92523738159498 99.57083051334602 H 0.0 **** 0.06
24453 H 115.0868758592214 92.3090194951112 99.72814245857352 H 0.0 **** 0.06
24454 H 113.86278549096467 93.46033315483986 100.31514444215462 H 0.0 **** 0.06
24455 H 114.0787290222353 93.20482907708417 98.56702066274052 H 0.0 **** 0.06
24456 C 43.510269831812124 14.71811082315331 210.89123191890508 C 0.0 **** -0.24
24457 H 42.46642018748648 14.881714928933931 211.15876462885865 H 0.0 **** 0.06
24458 H 43.85655840340192 13.783818369577645 211.33434250448107 H 0.0 **** 0.06
24459 H 44.11456489752409 15.544621007344091 211.2657095988934 H 0.0 **** 0.06
24460 H 43.602803641553336 14.662084148915838 209.80546137002972 H 0.0 **** 0.06
24461 C 142.21066194757265 58.60787045426416 140.85546176330303 C 0.0 **** -0.24
24462 H 142.99624663330707 58.99328523477206 140.20582010921953 H 0.0 **** 0.06
24463 H 142.0657549698496 59.29014232349195 141.69464544124793 H 0.0 **** 0.06
24464 H 142.49893177872366 57.62574487836389 141.23150964705735 H 0.0 **** 0.06
24465 H 141.28152346608533 58.5220794606288 140.2923030651823 H 0.0 **** 0.06
24466 C 122.37248478343633 27.829315005676307 19.316803992641994 C 0.0 **** -0.24
24467 H 123.22459086425789 27.354748998629915 18.82864060396504 H 0.0 **** 0.06
24468 H 121.52998783017546 27.13869140227814 19.327760185094206 H 0.0 **** 0.06
24469 H 122.09774150244073 28.730981457052835 18.770904872494896 H 0.0 **** 0.06
24470 H 122.64163437872355 28.092037982671954 20.340396337319348 H 0.0 **** 0.06
24471 C 45.08450321092997 208.83450762387565 25.269728920054547 C 0.0 **** -0.24
24472 H 45.000492234504094 207.75380021272076 25.154991023961117 H 0.0 **** 0.06
24473 H 45.10452989859856 209.08607443302498 26.33012941493672 H 0.0 **** 0.06
24474 H 44.22895625900027 209.31684305362546 24.797544555826107 H 0.0 **** 0.06
24475 H 46.00361465797603 209.17916134031037 24.795808988886193 H 0.0 **** 0.06
24476 C 120.66912801000882 36.165485732708675 15.145416341249927 C 0.0 **** -0.24
24477 H 120.21439610129289 35.76123177497628 14.240675617823428 H 0.0 **** 0.06
24478 H 121.59570315783503 35.630151755557364 15.356776682187459 H 0.0 **** 0.06
24479 H 119.98114640051307 36.04560298469936 15.982279273371873 H 0.0 **** 0.06
24480 H 120.8856485046096 37.22318434502898 15.000624657661447 H 0.0 **** 0.06
24481 C 75.40912954364103 139.1171661389438 186.57766959094354 C 0.0 **** -0.24
24482 H 75.65111198000909 139.64048719990916 187.50233639195224 H 0.0 **** 0.06
24483 H 76.204767216888 139.2776467904049 185.85022489351473 H 0.0 **** 0.06
24484 H 74.46913069962642 139.4992267504951 186.17998379465905 H 0.0 **** 0.06
24485 H 75.3112748071494 138.05023739178233 186.7803260751635 H 0.0 **** 0.06
24486 C 141.42310748930504 110.2486504161236 142.72877994846363 C 0.0 **** -0.24
24487 H 140.8071980527531 109.58294561042062 143.33437290891027 H 0.0 **** 0.06
24488 H 141.6996076403832 109.74441701947073 141.80241474100592 H 0.0 **** 0.06
24489 H 142.32426887260476 110.51296090067517 143.28211010855534 H 0.0 **** 0.06
24490 H 140.8596188522269 111.1527425791886 142.4981264133939 H 0.0 **** 0.06
24491 C 125.45312293462844 149.22046162762865 179.04508155319763 C 0.0 **** -0.24
24492 H 124.94984434342648 148.42751425459312 178.49269831277883 H 0.0 **** 0.06
24493 H 125.46808770867726 150.1298984222986 178.4430226382803 H 0.0 **** 0.06
24494 H 126.47508001521287 148.91516527021759 179.26884926533592 H 0.0 **** 0.06
24495 H 124.91854114076331 149.41013531013704 179.97636258078842 H 0.0 **** 0.06
24496 C 191.09191490004437 213.44904886624124 199.291184422221 C 0.0 **** -0.24
24497 H 190.98913711316277 212.5526104665853 198.68075913075415 H 0.0 **** 0.06
24498 H 192.14910590519656 213.6738029568789 199.43269030736474 H 0.0 **** 0.06
24499 H 190.62255973801732 213.2837568411416 200.26133772300523 H 0.0 **** 0.06
24500 H 190.60546127317645 214.28671372025428 198.79071103668986 H 0.0 **** 0.06
24501 C 48.568829759527745 157.33289270910632 215.51480721185754 C 0.0 **** -0.24
24502 H 47.61339884314731 157.81553233118967 215.72060783520362 H 0.0 **** 0.06
24503 H 49.1200843059832 157.91876934868446 214.7786318648386 H 0.0 **** 0.06
24504 H 48.39330290823051 156.33083561520215 215.12528440485255 H 0.0 **** 0.06
24505 H 49.148337077217576 157.26928481972146 216.43561687519477 H 0.0 **** 0.06
24506 C 19.065363252679504 15.993155372785708 21.726860128111525 C 0.0 **** -0.24
24507 H 20.030100920870893 16.062767800764277 22.229672700443587 H 0.0 **** 0.06
24508 H 18.6420753268699 16.99125121801626 21.611742097238448 H 0.0 **** 0.06
24509 H 18.390214127273197 15.377161790581681 22.320916272826082 H 0.0 **** 0.06
24510 H 19.199861740478525 15.539830704654321 20.743779220168364 H 0.0 **** 0.06
24511 C 110.50349216755502 88.33786585633315 11.445608929367552 C 0.0 **** -0.24
24512 H 109.71964019013932 87.72371106361662 11.000278562442361 H 0.0 **** 0.06
24513 H 111.06820612871859 87.74109735532575 12.16164987019755 H 0.0 **** 0.06
24514 H 110.05234930174755 89.18826866349282 11.955919913396713 H 0.0 **** 0.06
24515 H 111.17149988046508 88.69678209456451 10.662782025000695 H 0.0 **** 0.06
24516 C 59.812008629544664 34.426728937215046 199.767478094467 C 0.0 **** -0.24
24517 H 59.07868495544983 35.13293624542743 200.15739189348363 H 0.0 **** 0.06
24518 H 59.77441326160236 34.4294927349778 198.67724457862585 H 0.0 **** 0.06
24519 H 59.58515606696271 33.42668286416142 200.13648472963817 H 0.0 **** 0.06
24520 H 60.80928931380326 34.718229772808 200.09753512392967 H 0.0 **** 0.06
24521 C 40.97267261662756 24.94214220060067 169.21088759290058 C 0.0 **** -0.24
24522 H 40.862440347272866 24.062080551527657 169.84456691171454 H 0.0 **** 0.06
24523 H 41.796589945294784 25.554056875203685 169.5786780369835 H 0.0 **** 0.06
24524 H 40.05024328474923 25.523271853363454 169.2333733177433 H 0.0 **** 0.06
24525 H 41.179433507117324 24.629133268315854 168.18718817949352 H 0.0 **** 0.06
24526 C 31.486767790948477 109.44176395394817 144.2730499941244 C 0.0 **** -0.24
24527 H 32.274355741432686 109.69298167844835 144.98317815493084 H 0.0 **** 0.06
24528 H 31.455735714737443 108.3602362352425 144.13337903911406 H 0.0 **** 0.06
24529 H 31.690696381944633 109.92646302920048 143.31886392524223 H 0.0 **** 0.06
24530 H 30.52758125985585 109.78584906635786 144.65818860291733 H 0.0 **** 0.06
24531 C 26.58165986083793 188.98129946822846 60.468519274336074 C 0.0 **** -0.24
24532 H 27.175339736291505 188.67153191116589 59.60896974809167 H 0.0 **** 0.06
24533 H 25.604958383172203 189.32611626594695 60.13048714660539 H 0.0 **** 0.06
24534 H 27.093153344156477 189.7911704356846 60.989719415628144 H 0.0 **** 0.06
24535 H 26.455263852964265 188.13642838448666 61.14573049893467 H 0.0 **** 0.06
24536 C 25.086637857961435 113.90952219615959 23.186865616638727 C 0.0 **** -0.24
24537 H 25.87241479184017 114.60477941359385 22.89257131296617 H 0.0 **** 0.06
24538 H 24.13791414393563 114.44144195704921 23.25426598648545 H 0.0 **** 0.06
24539 H 25.331214212260406 113.47554257237043 24.156934298811535 H 0.0 **** 0.06
24540 H 25.007427510752535 113.1161893375908 22.444050147219713 H 0.0 **** 0.06
24541 C 27.98370395797953 166.16078200953874 125.81572819801663 C 0.0 **** -0.24
24542 H 28.905017824767228 165.69627373123296 126.16909200176941 H 0.0 **** 0.06
24543 H 27.66354343496255 166.92036255244622 126.52989890504107 H 0.0 **** 0.06
24544 H 27.207754735639327 165.40160990247932 125.71948555628417 H 0.0 **** 0.06
24545 H 28.160489734796883 166.62475223058848 124.84544805422989 H 0.0 **** 0.06
24546 C 98.51629698939281 147.61938674480484 80.77109787997023 C 0.0 **** -0.24
24547 H 98.615386682135 148.58604763707456 81.26509999736447 H 0.0 **** 0.06
24548 H 99.50186628571329 147.1706116465711 80.64972160784748 H 0.0 **** 0.06
24549 H 98.05674833664439 147.75813131985228 79.79247634134242 H 0.0 **** 0.06
24550 H 97.88969707712106 146.96441566893924 81.37726088808694 H 0.0 **** 0.06
24551 C 107.87773606214718 68.53679734535245 59.141249412176194 C 0.0 **** -0.24
24552 H 107.72773019430103 67.46495844883646 59.01476722673793 H 0.0 **** 0.06
24553 H 107.24391337297457 68.89829429407143 59.95145303098889 H 0.0 **** 0.06
24554 H 107.61670747044629 69.0521982712454 58.21790816075513 H 0.0 **** 0.06
24555 H 108.92266399522047 68.73039876328471 59.383732902736 H 0.0 **** 0.06
24556 C 34.49818240738145 63.796272790086846 123.42084423405383 C 0.0 **** -0.24
24557 H 33.5061439261127 64.19512675039105 123.21262252311227 H 0.0 **** 0.06
24558 H 35.00727045018414 63.57924806762908 122.48084912715937 H 0.0 **** 0.06
24559 H 34.405671076206914 62.879378458001554 124.0033462356346 H 0.0 **** 0.06
24560 H 35.07393235018333 64.52958310954878 123.98487446626395 H 0.0 **** 0.06
24561 C 169.75767672098604 195.2708811305834 205.59224874501504 C 0.0 **** -0.24
24562 H 169.9818052233358 195.09032472282695 204.54127066597502 H 0.0 **** 0.06
24563 H 169.9815087497412 196.31010466447574 205.83760530836497 H 0.0 **** 0.06
24564 H 170.36593596503764 194.6116996743949 206.21141805349654 H 0.0 **** 0.06
24565 H 168.70208343106827 195.0724070949884 205.77793665772452 H 0.0 **** 0.06
24566 C 107.13873417703489 115.66568734149376 204.12876749069892 C 0.0 **** -0.24
24567 H 106.95897940435374 116.41686297823475 204.8977749799519 H 0.0 **** 0.06
24568 H 106.72624082018162 114.70976262019502 204.4516967345259 H 0.0 **** 0.06
24569 H 108.21113958085859 115.56274649556906 203.9657338930395 H 0.0 **** 0.06
24570 H 106.65698843596401 115.97470424766465 203.20071051929958 H 0.0 **** 0.06
24571 C 88.87372845244198 180.59939076145355 14.112849560792938 C 0.0 **** -0.24
24572 H 88.34561981844774 181.55260599472032 14.13547974425795 H 0.0 **** 0.06
24573 H 89.73186947782926 180.6766286923115 13.444875439274341 H 0.0 **** 0.06
24574 H 88.20283548417308 179.81949291983688 13.75423124166494 H 0.0 **** 0.06
24575 H 89.21560869087068 180.35057989037995 15.117769557111657 H 0.0 **** 0.06
24576 C 167.2388100280249 7.089051441297869 82.42872405872858 C 0.0 **** -0.24
24577 H 167.2567912716288 7.550496591752903 83.4163703490522 H 0.0 **** 0.06
24578 H 166.78064640854308 7.775247790694607 81.71561619532277 H 0.0 **** 0.06
24579 H 166.65982619443764 6.166757634306691 82.46934401008055 H 0.0 **** 0.06
24580 H 168.25766968581104 6.864873941253933 82.11429828453869 H 0.0 **** 0.06
24581 C 43.44711526881714 197.61821464696624 114.71853468919291 C 0.0 **** -0.24
24582 H 43.07614730630887 197.07757586635006 115.58968199490896 H 0.0 **** 0.06
24583 H 42.61797074649978 198.12755986644032 114.2274329227234 H 0.0 **** 0.06
24584 H 43.906287736097795 196.91499815969954 114.02302597562898 H 0.0 **** 0.06
24585 H 44.18842171669061 198.35163375334386 115.03591506434567 H 0.0 **** 0.06
24586 C 91.41788729412879 182.18356991979942 33.222641969212646 C 0.0 **** -0.24
24587 H 92.33555686138492 182.41138816254482 32.67895586871978 H 0.0 **** 0.06
24588 H 91.28024428776571 181.10363665472974 33.26553327914354 H 0.0 **** 0.06
24589 H 90.57059829974538 182.6388668643616 32.70944201127969 H 0.0 **** 0.06
24590 H 91.4862814248823 182.58291499688522 34.234554954246335 H 0.0 **** 0.06
24591 C 128.55048910935056 131.1683387349151 108.18574787535523 C 0.0 **** -0.24
24592 H 128.9311302543316 130.629123166147 107.31753531591112 H 0.0 **** 0.06
24593 H 129.10563162865986 130.86439673034005 109.07309514400019 H 0.0 **** 0.06
24594 H 127.49394850877256 130.937647494832 108.32214673061783 H 0.0 **** 0.06
24595 H 128.67215236539914 132.2395679909706 108.02965160380721 H 0.0 **** 0.06
24596 C 124.00297375173783 105.62584270220641 210.41348688421402 C 0.0 **** -0.24
24597 H 123.51021828613132 104.9233629866424 211.08576914597808 H 0.0 **** 0.06
24598 H 123.6461093916188 106.63474390256566 210.61845595148372 H 0.0 **** 0.06
24599 H 123.77379865671988 105.3613345633007 209.38145522384735 H 0.0 **** 0.06
24600 H 125.08115180644798 105.58268593752506 210.57002034724468 H 0.0 **** 0.06
24601 C 161.31898991488956 209.88212918781204 182.6308328477378 C 0.0 **** -0.24
24602 H 162.38914650422197 209.97893747063443 182.44595943451515 H 0.0 **** 0.06
24603 H 161.131567110142 209.91938747912448 183.70371757597508 H 0.0 **** 0.06
24604 H 160.96733762558355 208.9304307551169 182.2321350906926 H 0.0 **** 0.06
24605 H 160.79091673693682 210.6996795177251 182.14054792504066 H 0.0 **** 0.06
24606 C 49.85757206231068 74.78730804793481 39.046941903286296 C 0.0 **** -0.24
24607 H 49.444175336449376 74.07755652786771 38.32966574944379 H 0.0 **** 0.06
24608 H 50.031821704919366 74.28296912361348 39.99743885182852 H 0.0 **** 0.06
24609 H 49.15439044592168 75.60660083840683 39.19344807617637 H 0.0 **** 0.06
24610 H 50.79997613395312 75.18113124001825 38.66520375993545 H 0.0 **** 0.06
24611 C 209.5801650503513 21.7411342185095 51.11104678855105 C 0.0 **** -0.24
24612 H 208.59713473668313 21.306116205144406 50.93028210761224 H 0.0 **** 0.06
24613 H 209.47205146740646 22.79961774542383 51.34875505766939 H 0.0 **** 0.06
24614 H 210.1955501867758 21.630918015303394 50.217290845777654 H 0.0 **** 0.06
24615 H 210.0573445523548 21.227498429067964 51.94524528026744 H 0.0 **** 0.06
24616 C 75.662206505942 59.856834059295636 26.326518197291648 C 0.0 **** -0.24
24617 H 75.21580991420272 60.74293246206997 26.77891388370776 H 0.0 **** 0.06
24618 H 76.57908465528861 60.137322781149464 25.807410612245974 H 0.0 **** 0.06
24619 H 74.96107474862033 59.41953953765193 25.616295779976554 H 0.0 **** 0.06
24620 H 75.8932935028963 59.12952114308504 27.10439598193878 H 0.0 **** 0.06
24621 C 5.094761018154678 76.86855023679999 37.23233770611694 C 0.0 **** -0.24
24622 H 4.105943169112692 77.1861022141448 36.90093742662586 H 0.0 **** 0.06
24623 H 5.705545847971479 76.6197484775555 36.36517872820764 H 0.0 **** 0.06
24624 H 4.998225204567554 75.99248202091644 37.87443386045646 H 0.0 **** 0.06
24625 H 5.566999414383602 77.67701159726585 37.79030478379417 H 0.0 **** 0.06
24626 C 104.63719155926732 191.69300267177115 128.95721131142318 C 0.0 **** -0.24
24627 H 104.3700594616083 191.62667916695924 130.01207991869717 H 0.0 **** 0.06
24628 H 104.05172087445628 190.97104111518246 128.38828098384425 H 0.0 **** 0.06
24629 H 105.69907534654708 191.47529825971915 128.8376045883208 H 0.0 **** 0.06
24630 H 104.42942520034207 192.69909784478924 128.59252132730558 H 0.0 **** 0.06
24631 C 19.101042365557987 20.37548521538838 59.95460081664345 C 0.0 **** -0.24
24632 H 18.53139558702972 19.67388016547936 60.56294119559709 H 0.0 **** 0.06
24633 H 19.25101968263408 19.95477057122349 58.95964445994008 H 0.0 **** 0.06
24634 H 20.06862010282154 20.560191619393393 60.42106624957796 H 0.0 **** 0.06
24635 H 18.552170385335103 21.31448843522125 59.87328867427334 H 0.0 **** 0.06
24636 C 122.11320818716486 135.3431087013323 154.41920257883743 C 0.0 **** -0.24
24637 H 122.55463842690405 136.1411765155151 155.01679462815088 H 0.0 **** 0.06
24638 H 121.07817126879742 135.19002818393437 154.72634275183782 H 0.0 **** 0.06
24639 H 122.6774305095483 134.4232618593203 154.5684978298409 H 0.0 **** 0.06
24640 H 122.14173176169457 135.62077235427085 153.36580453964842 H 0.0 **** 0.06
24641 C 189.1315400930905 151.03672589487314 83.10076079477022 C 0.0 **** -0.24
24642 H 190.18164766465003 151.3109653863649 82.9979068543314 H 0.0 **** 0.06
24643 H 188.92716322058408 150.7638641851687 84.13585533646881 H 0.0 **** 0.06
24644 H 188.9125701101167 150.18850452527016 82.4516546381098 H 0.0 **** 0.06
24645 H 188.50485409911371 151.88281340968967 82.81697612930333 H 0.0 **** 0.06
24646 C 179.55106671720154 90.55585062866457 56.455370843865694 C 0.0 **** -0.24
24647 H 180.43935907771788 90.80058035321828 55.87310185192479 H 0.0 **** 0.06
24648 H 179.13651684905653 91.46817732483977 56.885480784805 H 0.0 **** 0.06
24649 H 179.81940765117298 89.86642808534766 57.2549956389941 H 0.0 **** 0.06
24650 H 178.80821903632665 90.09005512620682 55.80809578359458 H 0.0 **** 0.06
24651 C 45.284453183750315 18.98118107902374 44.36738178756531 C 0.0 **** -0.24
24652 H 45.836862427796376 18.554599609924054 43.52927055470548 H 0.0 **** 0.06
24653 H 45.048121030812084 20.02430895050867 44.15235497640589 H 0.0 **** 0.06
24654 H 45.89297759236908 18.924994279862915 45.269263821508844 H 0.0 **** 0.06
24655 H 44.36065264642035 18.422297654816873 44.51560801907914 H 0.0 **** 0.06
24656 C 123.43531492676333 124.95910038071214 193.39463055337822 C 0.0 **** -0.24
24657 H 122.44221115531887 125.17137714877721 192.9979208111377 H 0.0 **** 0.06
24658 H 123.90399214099979 124.17601576660213 192.7985950735072 H 0.0 **** 0.06
24659 H 123.349557040964 124.62650758181395 194.42933281002894 H 0.0 **** 0.06
24660 H 124.04313030337018 125.86249290352664 193.3532960621023 H 0.0 **** 0.06
24661 C 61.30725687178662 172.1364865880928 84.21099434754463 C 0.0 **** -0.24
24662 H 60.236217135666394 172.0977386637942 84.0091017016522 H 0.0 **** 0.06
24663 H 61.5912033289343 173.15878778366312 84.46412245824386 H 0.0 **** 0.06
24664 H 61.8544454061834 171.81609849531682 83.32507996440704 H 0.0 **** 0.06
24665 H 61.54356158191298 171.47558752466574 85.04396890957848 H 0.0 **** 0.06
24666 C 134.09806117196854 131.19492055407073 195.58359307306762 C 0.0 **** -0.24
24667 H 134.42546690076324 131.75982543480632 196.45587805271703 H 0.0 **** 0.06
24668 H 133.33953783328116 130.47171778264214 195.8834434289223 H 0.0 **** 0.06
24669 H 134.94993983659634 130.6699384236362 195.14973864542497 H 0.0 **** 0.06
24670 H 133.67784009534688 131.8776375459314 194.84468651464044 H 0.0 **** 0.06
24671 C 117.10329698741329 106.14305919495149 192.20202920546723 C 0.0 **** -0.24
24672 H 118.11707454298771 105.74179223330043 192.20468273643604 H 0.0 **** 0.06
24673 H 116.5659516376562 105.77699343694724 193.07628200354048 H 0.0 **** 0.06
24674 H 116.58830033387822 105.82121420814673 191.29666497238355 H 0.0 **** 0.06
24675 H 117.14418213807211 107.232647770357 192.22981955706666 H 0.0 **** 0.06
24676 C 192.69352371952323 68.33450810323079 25.486064807368408 C 0.0 **** -0.24
24677 H 191.9245742447302 68.82181544043276 26.086196805077563 H 0.0 **** 0.06
24678 H 193.6750273715571 68.70423320885634 25.783801392265005 H 0.0 **** 0.06
24679 H 192.52573652774743 68.55587557827552 24.432069060098897 H 0.0 **** 0.06
24680 H 192.64716483160652 67.25645589633002 25.642779334366693 H 0.0 **** 0.06
24681 C 77.16770697572191 147.8025046199735 96.82690754369595 C 0.0 **** -0.24
24682 H 76.8069780425014 148.10183959309916 95.84379548719882 H 0.0 **** 0.06
24683 H 76.3809241296863 147.95756958163508 97.5650333758647 H 0.0 **** 0.06
24684 H 78.0388361862967 148.4011403762234 97.09213246248326 H 0.0 **** 0.06
24685 H 77.44466176965115 146.74817659263095 96.80671843791275 H 0.0 **** 0.06
24686 C 26.68312563194145 138.91772513007987 84.35335990645194 C 0.0 **** -0.24
24687 H 26.014201087280185 138.300101942227 84.95209079431595 H 0.0 **** 0.06
24688 H 26.095223988844637 139.54533342371064 83.68298341640025 H 0.0 **** 0.06
24689 H 27.341566110681327 138.27746055329493 83.76717006744025 H 0.0 **** 0.06
24690 H 27.281162730460906 139.54889498449324 85.01090259338787 H 0.0 **** 0.06
24691 C 51.13031268760834 59.937592748059956 118.52699318742059 C 0.0 **** -0.24
24692 H 51.88445849039731 60.62482244009885 118.910853317802 H 0.0 **** 0.06
24693 H 50.8021637525831 59.273701456385595 119.32712116157252 H 0.0 **** 0.06
24694 H 51.55785500235595 59.34665589293883 117.7167590574385 H 0.0 **** 0.06
24695 H 50.278974502790135 60.50503939967132 118.15217494473903 H 0.0 **** 0.06
24696 C 122.4582020819387 59.23749884376255 42.77571934425963 C 0.0 **** -0.24
24697 H 121.71762896743847 58.87789362390086 42.06210763891376 H 0.0 **** 0.06
24698 H 122.74166117283063 60.25883298955837 42.52023225262427 H 0.0 **** 0.06
24699 H 123.33851938416215 58.59563438160657 42.73989200155289 H 0.0 **** 0.06
24700 H 122.03564082088688 59.21730722076954 43.779952088500906 H 0.0 **** 0.06
24701 C 124.94128204180106 206.34409193065426 154.95324321279986 C 0.0 **** -0.24
24702 H 125.02659552037028 205.39063913810907 155.4758592695174 H 0.0 **** 0.06
24703 H 123.95846024511411 206.415754464063 154.48713063212136 H 0.0 **** 0.06
24704 H 125.71361777482451 206.40792355764256 154.18676674552563 H 0.0 **** 0.06
24705 H 125.06638045946869 207.1598018274127 155.6654383331557 H 0.0 **** 0.06
24706 C 126.88051663897222 129.18141213574756 170.20714725643427 C 0.0 **** -0.24
24707 H 126.48208029930267 129.65416771411242 171.10532529990496 H 0.0 **** 0.06
24708 H 126.63003441316174 128.1205839307686 170.21283155089694 H 0.0 **** 0.06
24709 H 127.96438264916178 129.2989087737248 170.18607205420471 H 0.0 **** 0.06
24710 H 126.44653702579747 129.65334067695625 169.32615845477983 H 0.0 **** 0.06
24711 C 72.91649163624709 138.29466672531248 164.52706937427268 C 0.0 **** -0.24
24712 H 73.0120204967622 137.23032365363497 164.7421558711373 H 0.0 **** 0.06
24713 H 73.35312904764749 138.8697304247329 165.3427872337354 H 0.0 **** 0.06
24714 H 71.86252390642903 138.55061056314509 164.4239001233417 H 0.0 **** 0.06
24715 H 73.43910085352792 138.52549256177002 163.59841002452475 H 0.0 **** 0.06
24716 C 169.91772505386623 76.36968440247692 85.62419221732402 C 0.0 **** -0.24
24717 H 169.2856722122222 77.19104709029519 85.28646055079524 H 0.0 **** 0.06
24718 H 169.3175216872658 75.4641758345367 85.71933583552884 H 0.0 **** 0.06
24719 H 170.3528931819335 76.62074051715966 86.59102656116825 H 0.0 **** 0.06
24720 H 170.71425473764504 76.20275345213305 84.89911659601289 H 0.0 **** 0.06
24721 C 137.96808927412008 152.46074854282563 9.116387606473836 C 0.0 **** -0.24
24722 H 137.6045091616017 153.45429767124637 9.381494742257189 H 0.0 **** 0.06
24723 H 139.05729961090373 152.44776231444916 9.168053414016924 H 0.0 **** 0.06
24724 H 137.64940492082883 152.21573877706544 8.103141517445351 H 0.0 **** 0.06
24725 H 137.5627846709371 151.7277007741033 9.813032612524381 H 0.0 **** 0.06
24726 C 192.9721987048528 145.20588964695742 31.436898035939436 C 0.0 **** -0.24
24727 H 192.2965132466415 146.04841570597733 31.289330629780068 H 0.0 **** 0.06
24728 H 192.6132739849931 144.5919250529148 32.26323069771452 H 0.0 **** 0.06
24729 H 193.97126275128028 145.576923544865 31.666443283991356 H 0.0 **** 0.06
24730 H 193.00880667057027 144.60604048434942 30.526911775160784 H 0.0 **** 0.06
24731 C 187.31798017030613 113.02024029346966 81.04577408607355 C 0.0 **** -0.24
24732 H 187.7881229844557 113.58664098651253 80.24154828773726 H 0.0 **** 0.06
24733 H 187.32554534317205 113.6138525295223 81.960426169436 H 0.0 **** 0.06
24734 H 187.86983193671813 112.09452272835007 81.20803544760685 H 0.0 **** 0.06
24735 H 186.2889400128193 112.78753904343931 80.77160694448855 H 0.0 **** 0.06
24736 C 178.2264577801251 44.97141302847041 105.39918558996821 C 0.0 **** -0.24
24737 H 179.08699054571937 44.8426188493151 106.05586478052287 H 0.0 **** 0.06
24738 H 177.38889888905015 44.38760446091442 105.77929054298149 H 0.0 **** 0.06
24739 H 178.48158249716926 44.63095176990802 104.39543928052326 H 0.0 **** 0.06
24740 H 177.9506102591746 46.02511328664863 105.36542114382381 H 0.0 **** 0.06
24741 C 110.04877914923553 85.06406924122052 27.20321300245857 C 0.0 **** -0.24
24742 H 110.75938737525526 85.3448352667001 27.98055239025703 H 0.0 **** 0.06
24743 H 110.57641441126977 84.94147495368566 26.257147035521257 H 0.0 **** 0.06
24744 H 109.29475063889468 85.84440516301675 27.10047065318254 H 0.0 **** 0.06
24745 H 109.56597365799779 84.1255250555538 27.47457216917759 H 0.0 **** 0.06
24746 C 37.96239394543393 145.77786135617976 47.68869772376485 C 0.0 **** -0.24
24747 H 38.2281008008882 146.82622250040237 47.82301044880444 H 0.0 **** 0.06
24748 H 38.87149916082288 145.1791388925604 47.624446093786275 H 0.0 **** 0.06
24749 H 37.38592539030054 145.66354944486102 46.77063948463916 H 0.0 **** 0.06
24750 H 37.36506836960227 145.44347063086173 48.536398803656596 H 0.0 **** 0.06
24751 C 123.6155699528263 189.43355101385322 191.2729846124737 C 0.0 **** -0.24
24752 H 124.50135556298441 190.07015145918805 191.26433049034102 H 0.0 **** 0.06
24753 H 122.97268424647153 189.69437912057947 190.43200910037814 H 0.0 **** 0.06
24754 H 123.07245089109942 189.5801921158585 192.20681126428312 H 0.0 **** 0.06
24755 H 123.91910567042275 188.38950546006438 191.1887937227044 H 0.0 **** 0.06
24756 C 126.1339783254241 148.25136393652042 33.448851903198715 C 0.0 **** -0.24
24757 H 127.05887788468067 148.60079732256128 32.98913539938167 H 0.0 **** 0.06
24758 H 126.36861829832651 147.54471234658814 34.24352524061544 H 0.0 **** 0.06
24759 H 125.5165614481499 147.76094402349338 32.69557249760203 H 0.0 **** 0.06
24760 H 125.59299860419577 149.10101320085408 33.865264202631465 H 0.0 **** 0.06
24761 C 152.9982936559374 92.30834664306722 196.7636985425214 C 0.0 **** -0.24
24762 H 153.02211647151626 93.36281579802188 197.03517852094478 H 0.0 **** 0.06
24763 H 153.80049313029042 91.78196230085574 197.28183142182564 H 0.0 **** 0.06
24764 H 153.13338670895047 92.2068232974009 195.68648917191615 H 0.0 **** 0.06
24765 H 152.03771688032128 91.88057687235504 197.05079507394427 H 0.0 **** 0.06
24766 C 13.099763856677981 19.762004576640877 30.404018483798367 C 0.0 **** -0.24
24767 H 14.140801161899631 19.78733074394009 30.726276227770683 H 0.0 **** 0.06
24768 H 13.031657825493994 19.270374968476872 29.434540788472233 H 0.0 **** 0.06
24769 H 12.720810994702518 20.78093604253415 30.323256258380752 H 0.0 **** 0.06
24770 H 12.50739520849524 19.210448508321193 31.13429406886449 H 0.0 **** 0.06
24771 C 97.86740379339322 165.4599024667052 94.97673892817427 C 0.0 **** -0.24
24772 H 98.12362101111047 165.10551020563966 93.97848545668104 H 0.0 **** 0.06
24773 H 97.24997222813452 166.35530789862636 94.89657326628448 H 0.0 **** 0.06
24774 H 98.78087121131439 165.69581692762708 95.5234342680301 H 0.0 **** 0.06
24775 H 97.31639356216745 164.68405012162887 95.50694641233592 H 0.0 **** 0.06
24776 C 90.49573404964603 104.9091592278852 191.65788966871395 C 0.0 **** -0.24
24777 H 91.362750509495 105.09524476299788 191.0234853964276 H 0.0 **** 0.06
24778 H 89.71986880982833 105.64121135365764 191.43656879254235 H 0.0 **** 0.06
24779 H 90.78781232668969 104.99241729295937 192.70501455222728 H 0.0 **** 0.06
24780 H 90.11421535041843 103.90601201599992 191.46656456254448 H 0.0 **** 0.06
24781 C 214.02433321629013 24.43077948746965 160.54441831366566 C 0.0 **** -0.24
24782 H 213.97666253316945 23.366824534600724 160.77572870120417 H 0.0 **** 0.06
24783 H 213.51900718552298 24.995054097484527 161.3286841590053 H 0.0 **** 0.06
24784 H 213.53413680095673 24.617421859041528 159.58871268799112 H 0.0 **** 0.06
24785 H 215.06657990585177 24.74396034604966 160.48599127358466 H 0.0 **** 0.06
24786 C 104.39818357662342 72.50741865848727 106.52264074614264 C 0.0 **** -0.24
24787 H 104.31299436097193 72.86745265800482 107.54819594338285 H 0.0 **** 0.06
24788 H 103.4331804130528 72.60046006040204 106.02363138553422 H 0.0 **** 0.06
24789 H 104.70455932162223 71.46093219560765 106.52993037299099 H 0.0 **** 0.06
24790 H 105.14244629423895 73.09959692442732 105.98993721715301 H 0.0 **** 0.06
24791 C 204.16614843492084 203.48880984349603 50.991046552813856 C 0.0 **** -0.24
24792 H 203.78277038728663 202.65687790052823 50.4009434786731 H 0.0 **** 0.06
24793 H 205.20760544048716 203.6727459327834 50.72705988998635 H 0.0 **** 0.06
24794 H 204.09875836332606 203.24297840509468 52.05162500233803 H 0.0 **** 0.06
24795 H 203.57557088247572 204.38191669877347 50.78729073454184 H 0.0 **** 0.06
24796 C 45.55374638998569 150.82508228615586 212.38314978727658 C 0.0 **** -0.24
24797 H 44.86008207004778 150.75470304169892 213.22180808065525 H 0.0 **** 0.06
24798 H 45.22162906600323 151.6082733082057 211.70188035604343 H 0.0 **** 0.06
24799 H 45.58143701213311 149.871810165424 211.85457184290678 H 0.0 **** 0.06
24800 H 46.54975220446465 151.06351641769191 212.75507814591873 H 0.0 **** 0.06
24801 C 50.40420671700869 0.5368316211580577 176.83667994215904 C 0.0 **** -0.24
24802 H 50.13683750687714 1.0196359445778285 177.77656441652914 H 0.0 **** 0.06
24803 H 49.506536826499115 0.3932287204874001 176.23471140223342 H 0.0 **** 0.06
24804 H 50.86253124277806 -0.4308205851326079 177.04227416194112 H 0.0 **** 0.06
24805 H 51.10963117189935 1.1650046113161352 176.29266140307018 H 0.0 **** 0.06
24806 C 62.874485864012 192.63283224667518 60.47496571321034 C 0.0 **** -0.24
24807 H 63.16577529791405 191.94542154332095 59.68039907804132 H 0.0 **** 0.06
24808 H 62.06126970256915 193.26887866147993 60.12425417544458 H 0.0 **** 0.06
24809 H 63.727404785558576 193.25329737054705 60.750077473272185 H 0.0 **** 0.06
24810 H 62.54194027411643 192.06469297856077 61.34384277180362 H 0.0 **** 0.06
24811 C 211.23406252313177 205.29104103766463 203.28171149204127 C 0.0 **** -0.24
24812 H 210.65902183448208 204.36607887950555 203.3214020947212 H 0.0 **** 0.06
24813 H 212.25850360154482 205.0957799970689 203.59857540283596 H 0.0 **** 0.06
24814 H 210.78207544307838 206.02765582319225 203.94680960006912 H 0.0 **** 0.06
24815 H 211.23438340784514 205.6745886574978 202.26098759597977 H 0.0 **** 0.06
24816 C 179.2600194195457 120.6085656130628 186.0122320172397 C 0.0 **** -0.24
24817 H 178.8080183062184 121.05822455528029 186.89630269625798 H 0.0 **** 0.06
24818 H 179.46119153749999 121.38384009464924 185.2728671579501 H 0.0 **** 0.06
24819 H 178.5753852254329 119.87236809236036 185.58990230732653 H 0.0 **** 0.06
24820 H 180.19360905023532 120.11926438509586 186.2909376975978 H 0.0 **** 0.06
24821 C 170.47424430009158 204.64920338213284 206.3133768862321 C 0.0 **** -0.24
24822 H 170.12044438837313 205.16919938801797 205.42276253410972 H 0.0 **** 0.06
24823 H 170.78005316464703 205.3791098636681 207.06238796067208 H 0.0 **** 0.06
24824 H 171.32412605575394 204.01854542509648 206.05130496942576 H 0.0 **** 0.06
24825 H 169.67163581355135 204.02977952892715 206.71414471240064 H 0.0 **** 0.06
24826 C 37.15160765816107 71.23625699671196 18.62539936627664 C 0.0 **** -0.24
24827 H 36.791865912117174 70.56623668547626 17.84401418025581 H 0.0 **** 0.06
24828 H 36.40993106862108 72.01456667177636 18.805998450033783 H 0.0 **** 0.06
24829 H 38.088192835096635 71.69347869798968 18.307000794156863 H 0.0 **** 0.06
24830 H 37.31646824158794 70.6702731013698 19.541457405257958 H 0.0 **** 0.06
24831 C 42.84256118982525 190.62747252117762 121.48435193024163 C 0.0 **** -0.24
24832 H 41.97687886659499 190.53815990520272 122.13996118379369 H 0.0 **** 0.06
24833 H 43.50800864530082 189.778509944024 121.6436515766638 H 0.0 **** 0.06
24834 H 43.37404877981021 191.5527070615504 121.70927222950512 H 0.0 **** 0.06
24835 H 42.512444931145595 190.6408827064683 120.44527899167447 H 0.0 **** 0.06
24836 C 21.408152303405217 193.1202774111723 88.58576625516027 C 0.0 **** -0.24
24837 H 22.09689733188992 192.408399826601 89.04188109294601 H 0.0 **** 0.06
24838 H 21.00220609170671 192.69542318383358 87.66707331651845 H 0.0 **** 0.06
24839 H 21.939775099336885 194.043119266671 88.35644938279184 H 0.0 **** 0.06
24840 H 20.594368172654328 193.33264057748755 89.2791654270046 H 0.0 **** 0.06
24841 C 190.8102929269031 146.2890846142007 199.07758546724622 C 0.0 **** -0.24
24842 H 190.72972031429663 147.01394032040133 199.88765731363648 H 0.0 **** 0.06
24843 H 191.08922830441406 145.3172040492271 199.4860072801692 H 0.0 **** 0.06
24844 H 191.57211640801148 146.6186478677671 198.37055633395602 H 0.0 **** 0.06
24845 H 189.85158158453882 146.20744280547984 198.56626531396358 H 0.0 **** 0.06
24846 C 183.6350027616074 77.49517793584998 83.45888400921218 C 0.0 **** -0.24
24847 H 184.40554273990404 78.09038245873266 83.94959152512205 H 0.0 **** 0.06
24848 H 182.6604319827695 77.95445580994941 83.62686550310427 H 0.0 **** 0.06
24849 H 183.63791386020847 76.4864235330097 83.87079201189384 H 0.0 **** 0.06
24850 H 183.83722391706044 77.45241275082428 82.38838044077933 H 0.0 **** 0.06
24851 C 50.51808929980811 173.4097764036225 103.85187427920907 C 0.0 **** -0.24
24852 H 50.391765744379 172.54135500908285 104.49798322396056 H 0.0 **** 0.06
24853 H 49.82505563989943 173.34184105024474 103.01206280863529 H 0.0 **** 0.06
24854 H 51.54119711584512 173.4394297614826 103.4776641720109 H 0.0 **** 0.06
24855 H 50.31286020156094 174.31815301059157 104.41966660050336 H 0.0 **** 0.06
24856 C 8.731980033227345 48.81605913414171 141.17254074320272 C 0.0 **** -0.24
24857 H 9.36170474503875 48.077551850171005 141.6679939740452 H 0.0 **** 0.06
24858 H 9.086463182745192 49.818303305456055 141.41559315211913 H 0.0 **** 0.06
24859 H 7.702458608344301 48.70261980171301 141.51315533782173 H 0.0 **** 0.06
24860 H 8.775857177855698 48.665158176273735 140.0941772494631 H 0.0 **** 0.06
24861 C 43.336906671680424 198.08484663364146 119.2649309336453 C 0.0 **** -0.24
24862 H 42.729104463079295 198.41161591883233 118.42080804150902 H 0.0 **** 0.06
24863 H 43.68955297375521 198.95715326609928 119.81697793708173 H 0.0 **** 0.06
24864 H 44.191839122372585 197.51760125931344 118.89802997561964 H 0.0 **** 0.06
24865 H 42.73712561474201 197.4562393267854 119.92200752680543 H 0.0 **** 0.06
24866 C 5.135752408959519 213.2139185423085 45.79973427000206 C 0.0 **** -0.24
24867 H 5.307137463512959 213.11293367910196 46.871796474566395 H 0.0 **** 0.06
24868 H 4.843163770212186 214.23895856113882 45.57467657590344 H 0.0 **** 0.06
24869 H 4.3404599144597 212.53359427710308 45.49509533684372 H 0.0 **** 0.06
24870 H 6.050268098804963 212.96916236842048 45.26083670969966 H 0.0 **** 0.06
24871 C 58.725549696913106 124.7423598620784 180.59026441271232 C 0.0 **** -0.24
24872 H 59.65927857091708 124.28533895272334 180.915268082137 H 0.0 **** 0.06
24873 H 58.80140200018974 125.01425979515922 179.5374971120051 H 0.0 **** 0.06
24874 H 58.53381126029609 125.63728203682633 181.18334436651634 H 0.0 **** 0.06
24875 H 57.908249875864556 124.03441745696234 180.72544828349422 H 0.0 **** 0.06
24876 C 200.81499248958056 113.16258901861441 67.18635080487483 C 0.0 **** -0.24
24877 H 201.64240286469058 113.59655944061869 66.62482085623718 H 0.0 **** 0.06
24878 H 201.112995083011 112.19191488866583 67.58158403919897 H 0.0 **** 0.06
24879 H 199.9548703385194 113.03956690427363 66.52787256781464 H 0.0 **** 0.06
24880 H 200.54922361515148 113.8249490149319 68.01021321895561 H 0.0 **** 0.06
24881 C 160.2980955365403 14.018890281812105 196.10312528866336 C 0.0 **** -0.24
24882 H 159.81363940870986 14.387136167469961 197.00809566631264 H 0.0 **** 0.06
24883 H 160.61984109482762 12.98828416892799 196.25808657170725 H 0.0 **** 0.06
24884 H 161.16391417617916 14.640917613775414 195.8765017791126 H 0.0 **** 0.06
24885 H 159.59298534320766 14.058804326486765 195.27295023567024 H 0.0 **** 0.06
24886 C 106.53476102020795 67.91782462868755 193.80413545662446 C 0.0 **** -0.24
24887 H 105.96720494291066 68.39259933782942 194.60477970916952 H 0.0 **** 0.06
24888 H 106.01704182866536 67.01607172634435 193.4772338235614 H 0.0 **** 0.06
24889 H 107.52807651957744 67.65585668947354 194.1688096363759 H 0.0 **** 0.06
24890 H 106.62677783669011 68.60817885985517 192.96583713709282 H 0.0 **** 0.06
24891 C 13.931497829183911 178.79331273969242 134.37486875396178 C 0.0 **** -0.24
24892 H 13.000385146355882 178.51563054634926 133.88048032899218 H 0.0 **** 0.06
24893 H 14.051681198657889 178.2009647388106 135.281805320655 H 0.0 **** 0.06
24894 H 13.903480678607252 179.8522099902632 134.63296524396867 H 0.0 **** 0.06
24895 H 14.769090068567778 178.60506225099118 133.70333757214092 H 0.0 **** 0.06
24896 C 20.613076415916694 205.20379799127883 148.88800292329472 C 0.0 **** -0.24
24897 H 20.783670047649267 204.51578556162283 149.7145474195932 H 0.0 **** 0.06
24898 H 21.166853378429366 206.12650428753142 149.06366543223407 H 0.0 **** 0.06
24899 H 19.549327813262806 205.42733420881135 148.8138976728955 H 0.0 **** 0.06
24900 H 20.954078338315597 204.7470344234739 147.95880010764205 H 0.0 **** 0.06
24901 C 162.6278017931528 140.19314343549058 93.84943500758438 C 0.0 **** -0.24
24902 H 163.26325545426187 140.71926405043718 93.13822206380884 H 0.0 **** 0.06
24903 H 162.3984142502017 139.19934747697948 93.4653320536108 H 0.0 **** 0.06
24904 H 161.70226715327146 140.75092052978613 93.9925066041997 H 0.0 **** 0.06
24905 H 163.14751426426244 140.10347724139564 94.8038589563637 H 0.0 **** 0.06
24906 C 5.538333260918549 122.16312198932951 155.89203825663225 C 0.0 **** -0.24
24907 H 5.605306610724 122.24721946574596 156.976435006391 H 0.0 **** 0.06
24908 H 4.722663462591591 121.48753049903411 155.63067818315324 H 0.0 **** 0.06
24909 H 6.4757155872100896 121.7710106945529 155.49918685861127 H 0.0 **** 0.06
24910 H 5.346572509019275 123.14702731534987 155.46252774363472 H 0.0 **** 0.06
24911 C 215.72886465434613 139.1279656726851 166.61804401952213 C 0.0 **** -0.24
24912 H 216.37593479102443 139.76570035634853 166.0155078346254 H 0.0 **** 0.06
24913 H 214.7590665544803 139.03057035492242 166.1301711541791 H 0.0 **** 0.06
24914 H 215.59673776996374 139.5722368595147 167.60463954828617 H 0.0 **** 0.06
24915 H 216.18464123807763 138.14240928879087 166.7213517349524 H 0.0 **** 0.06
24916 C 42.68711876195856 164.49443691610202 63.481358224472444 C 0.0 **** -0.24
24917 H 43.56271666093022 164.14929675049592 62.93150395052123 H 0.0 **** 0.06
24918 H 42.21315387448959 165.30929797196194 62.93435468011364 H 0.0 **** 0.06
24919 H 42.993142695955356 164.84757713825348 64.46581313046943 H 0.0 **** 0.06
24920 H 41.981641873553244 163.6715908827486 63.59326393618932 H 0.0 **** 0.06
24921 C 172.01447619549236 76.19778680949351 40.55634312784562 C 0.0 **** -0.24
24922 H 171.82839575220095 75.28900316070799 41.128676496250506 H 0.0 **** 0.06
24923 H 171.07428396257467 76.73034972411456 40.40548066801517 H 0.0 **** 0.06
24924 H 172.44335984093146 75.93609570439308 39.58894986565112 H 0.0 **** 0.06
24925 H 172.70998317380815 76.83458862324302 41.101790290283944 H 0.0 **** 0.06
24926 C 101.62454833268224 70.44475112178328 59.996830278467144 C 0.0 **** -0.24
24927 H 102.58415107455177 70.37333416802936 59.4850643859331 H 0.0 **** 0.06
24928 H 101.40568981463234 71.49050047181335 60.213877257446754 H 0.0 **** 0.06
24929 H 101.66771980889222 69.88181484744085 60.929411705231885 H 0.0 **** 0.06
24930 H 100.84217354713637 70.0339964583833 59.35943054419906 H 0.0 **** 0.06
24931 C 120.36883003409768 43.220075523616 105.56164310164148 C 0.0 **** -0.24
24932 H 120.7634042659809 44.066308756993436 105.00139441950809 H 0.0 **** 0.06
24933 H 120.12559591852319 43.537483006770486 106.57674153487845 H 0.0 **** 0.06
24934 H 121.11615626584721 42.42712422505623 105.59746049569198 H 0.0 **** 0.06
24935 H 119.46786992809164 42.8484832426154 105.07268582939763 H 0.0 **** 0.06
24936 C 135.51756631807666 76.44240274623282 168.04370947179405 C 0.0 **** -0.24
24937 H 134.7545189013922 75.87471312569521 167.51260849693085 H 0.0 **** 0.06
24938 H 136.11375004030197 75.76593102696701 168.65627140505137 H 0.0 **** 0.06
24939 H 135.03869898811195 77.18481851129165 168.68271499677766 H 0.0 **** 0.06
24940 H 136.16297287762688 76.94576057073535 167.32269945910696 H 0.0 **** 0.06
24941 C 0.6251090818662206 165.4538989695402 176.63204423493582 C 0.0 **** -0.24
24942 H 1.0935170902853812 165.46128419974957 175.64767969966164 H 0.0 **** 0.06
24943 H 0.8271522924710126 164.50135498966551 177.1230265799764 H 0.0 **** 0.06
24944 H -0.45082759730069455 165.58589970377665 176.5229700129551 H 0.0 **** 0.06
24945 H 1.0314686392154542 166.266663411506 177.2334608933807 H 0.0 **** 0.06
24946 C 127.33044141502063 132.2952683261933 188.66035131978302 C 0.0 **** -0.24
24947 H 127.84547846234807 131.9844686791983 189.56883056587137 H 0.0 **** 0.06
24948 H 127.36499634940725 131.48686297815487 187.92842719405945 H 0.0 **** 0.06
24949 H 127.81907941532523 133.17819861832436 188.24966394254596 H 0.0 **** 0.06
24950 H 126.2921085264964 132.53003196006387 188.89317738048805 H 0.0 **** 0.06
24951 C 154.1783124129571 169.66760002423695 8.518679722962133 C 0.0 **** -0.24
24952 H 154.510909358145 170.4811426864294 7.8725359485372906 H 0.0 **** 0.06
24953 H 153.09504995040373 169.57205927849267 8.451303738950912 H 0.0 **** 0.06
24954 H 154.46208144986554 169.88394189994165 9.548823145169024 H 0.0 **** 0.06
24955 H 154.6471400817867 168.73659439635554 8.199386313202865 H 0.0 **** 0.06
24956 C 190.07035821947937 104.7800006305064 136.44005542893518 C 0.0 **** -0.24
24957 H 190.48419276241933 105.78774067160585 136.43421626962652 H 0.0 **** 0.06
24958 H 188.98463327336566 104.83281162105179 136.35390734310818 H 0.0 **** 0.06
24959 H 190.3365462595867 104.28326360415757 137.37267666956694 H 0.0 **** 0.06
24960 H 190.4747764420216 104.21577374549717 135.5989965247964 H 0.0 **** 0.06
24961 C 52.16600116064012 18.84841498457395 28.77012889247753 C 0.0 **** -0.24
24962 H 51.40876178471569 19.63243552277612 28.767587249342156 H 0.0 **** 0.06
24963 H 51.67828479713643 17.873416595489402 28.742181683229006 H 0.0 **** 0.06
24964 H 52.76834354014102 18.927336926823685 29.675360977702297 H 0.0 **** 0.06
24965 H 52.807423401868704 18.959224053245293 27.895548991210234 H 0.0 **** 0.06
24966 C 3.133785680987991 96.59372915355404 129.34523049361394 C 0.0 **** -0.24
24967 H 2.7367016738915524 95.67053363851731 128.92277993492308 H 0.0 **** 0.06
24968 H 4.181247827261636 96.69893703155641 129.06625297335046 H 0.0 **** 0.06
24969 H 3.04747181411944 96.56137153220014 130.43126043562307 H 0.0 **** 0.06
24970 H 2.5671408173329127 97.44150894794355 128.9614999399518 H 0.0 **** 0.06
24971 C 4.014265916377326 134.27350999928387 10.58440431519557 C 0.0 **** -0.24
24972 H 3.793218858372086 135.3156113121036 10.814330785744346 H 0.0 **** 0.06
24973 H 3.090847696035837 133.75496480249336 10.321842232981567 H 0.0 **** 0.06
24974 H 4.463453476571942 133.79598565135484 11.455724683798564 H 0.0 **** 0.06
24975 H 4.708793842881789 134.2259172602902 9.745684441300114 H 0.0 **** 0.06
24976 C 18.7382713717883 173.97008792138286 17.649008278024667 C 0.0 **** -0.24
24977 H 19.532091321145117 173.68131264184063 18.33821352328306 H 0.0 **** 0.06
24978 H 18.654592090541257 175.05765646107776 17.62652220490037 H 0.0 **** 0.06
24979 H 17.79327950254668 173.54020231472623 17.98338814383112 H 0.0 **** 0.06
24980 H 18.971018218511603 173.6025032399721 16.65070596578903 H 0.0 **** 0.06
24981 C 133.9284274769156 190.23186023305834 97.73633519264685 C 0.0 **** -0.24
24982 H 133.42144220312377 189.55591047231772 97.04687307615838 H 0.0 **** 0.06
24983 H 134.9031833802066 189.81846947959136 97.99862545172796 H 0.0 **** 0.06
24984 H 133.32774145309122 190.34693119518937 98.63826651024858 H 0.0 **** 0.06
24985 H 134.0610516706751 191.2030026479786 97.26120642915653 H 0.0 **** 0.06
24986 C 179.26677933752254 98.56758464424763 13.045335211578049 C 0.0 **** -0.24
24987 H 178.8432701704132 98.38846098841964 14.033806680591724 H 0.0 **** 0.06
24988 H 178.81729954007957 97.88143365502282 12.328125442077166 H 0.0 **** 0.06
24989 H 180.34451658326046 98.40601980216633 13.078112912206791 H 0.0 **** 0.06
24990 H 179.0627345775914 99.59511130852349 12.743304027103463 H 0.0 **** 0.06
24991 C 54.381191942967064 185.6926441142635 210.84236607829567 C 0.0 **** -0.24
24992 H 54.694504985461336 185.5510389214056 209.80825388177644 H 0.0 **** 0.06
24993 H 54.78217742155252 186.63488891140435 211.2169278737195 H 0.0 **** 0.06
24994 H 54.756308836742235 184.86977140095917 211.45087815758959 H 0.0 **** 0.06
24995 H 53.292683524241426 185.71513907450796 210.89235139209353 H 0.0 **** 0.06
24996 C 86.52688434727217 133.54755729313382 100.02782505759801 C 0.0 **** -0.24
24997 H 86.54247637234319 132.48622504213301 100.2731653465052 H 0.0 **** 0.06
24998 H 87.28337451605789 134.06776991188894 100.61581451449545 H 0.0 **** 0.06
24999 H 85.54277916712915 133.95852907777657 100.256018716268 H 0.0 **** 0.06
25000 H 86.73743169537055 133.67860245274107 98.96643346341101 H 0.0 **** 0.06
25001 C 38.533300624085854 178.73013506858882 200.7602899062748 C 0.0 **** -0.24
25002 H 37.76737806825673 178.7387598268945 199.9841363093452 H 0.0 **** 0.06
25003 H 38.0862005640887 179.01284401228418 201.71378418572255 H 0.0 **** 0.06
25004 H 39.320026369183466 179.43803824387888 200.50267623289105 H 0.0 **** 0.06
25005 H 38.9568456667503 177.72888137321817 200.83996282170799 H 0.0 **** 0.06
25006 C 18.950578427638277 3.656958826708717 205.76127948561177 C 0.0 **** -0.24
25007 H 19.785905643081094 4.351465896840139 205.8500854965019 H 0.0 **** 0.06
25008 H 18.895471730666316 3.038796378986973 206.65696892134724 H 0.0 **** 0.06
25009 H 19.09873891931221 3.0211319201676687 204.88802879880478 H 0.0 **** 0.06
25010 H 18.023540712428314 4.218040254763309 205.6487547261351 H 0.0 **** 0.06
25011 C 115.01751489226457 29.12215814693343 65.75888879624898 C 0.0 **** -0.24
25012 H 114.48747082698644 30.030665855942573 66.04395924306348 H 0.0 **** 0.06
25013 H 115.21307745940852 29.136985061164125 64.68684748388506 H 0.0 **** 0.06
25014 H 114.40629499456749 28.253457414858985 66.00419353844313 H 0.0 **** 0.06
25015 H 115.96100509000165 29.06730400617579 66.30080427447001 H 0.0 **** 0.06
25016 C 123.13630124371446 192.08271259881894 63.789397063896956 C 0.0 **** -0.24
25017 H 123.50673533234152 192.55277765878054 64.69999002977085 H 0.0 **** 0.06
25018 H 123.2877545844446 192.75729182465273 62.94537637180332 H 0.0 **** 0.06
25019 H 122.07304502076175 191.86837707710077 63.89754338114233 H 0.0 **** 0.06
25020 H 123.67883310762437 191.15339768427782 63.61304764017393 H 0.0 **** 0.06
25021 C 142.85421898605006 105.48079752443034 141.89025607957103 C 0.0 **** -0.24
25022 H 142.20795047164796 105.39026009892625 142.7623495893522 H 0.0 **** 0.06
25023 H 142.8762706322696 104.53167977756674 141.3538696706094 H 0.0 **** 0.06
25024 H 143.8634954902156 105.74018796222468 142.21204436208234 H 0.0 **** 0.06
25025 H 142.47115196268135 106.26231291491247 141.2334429399362 H 0.0 **** 0.06
25026 C 106.15000962585641 16.314817063791082 71.83030248009891 C 0.0 **** -0.24
25027 H 106.49266443424564 17.06345464077785 72.54369267846948 H 0.0 **** 0.06
25028 H 105.10990068801705 16.51121862746041 71.57034102564387 H 0.0 **** 0.06
25029 H 106.23254800767135 15.323285476208184 72.27589721726207 H 0.0 **** 0.06
25030 H 106.76492537349155 16.361309510717888 70.93127899902044 H 0.0 **** 0.06
25031 C 129.3563606701503 100.69797361011456 200.06257155210685 C 0.0 **** -0.24
25032 H 130.09237615802465 99.90583235452817 199.92514313688872 H 0.0 **** 0.06
25033 H 129.8690129422107 101.64102807525046 200.25069398858233 H 0.0 **** 0.06
25034 H 128.71581492128348 100.4564845828865 200.91070439979697 H 0.0 **** 0.06
25035 H 128.74786085154233 100.78736420410337 199.16217861353678 H 0.0 **** 0.06
25036 C 138.31508363078427 98.45387465286073 63.77513072125673 C 0.0 **** -0.24
25037 H 137.7926828019963 98.3230337036892 64.72226911645306 H 0.0 **** 0.06
25038 H 138.69912279903485 97.49120583338457 63.43621950212281 H 0.0 **** 0.06
25039 H 139.14484650324647 99.14737779341336 63.91064493214013 H 0.0 **** 0.06
25040 H 137.6253550374098 98.8525371926364 63.03201850719613 H 0.0 **** 0.06
25041 C 176.7790898273065 52.41599170542068 107.95764774643146 C 0.0 **** -0.24
25042 H 177.1542875768945 52.76093414929335 108.92105134432569 H 0.0 **** 0.06
25043 H 176.72909230313098 51.32619562123577 107.95626428820623 H 0.0 **** 0.06
25044 H 177.44921328896908 52.75038603511186 107.16512700232784 H 0.0 **** 0.06
25045 H 175.78338614091894 52.82552692129255 107.78818917200869 H 0.0 **** 0.06
25046 C 127.9364698121751 164.83867260547544 69.917450805516 C 0.0 **** -0.24
25047 H 127.68280046874405 164.97209300894863 70.96897303185752 H 0.0 **** 0.06
25048 H 128.08034777257967 165.81376264387583 69.45236298456811 H 0.0 **** 0.06
25049 H 127.12815380000107 164.31063090817227 69.4129002089263 H 0.0 **** 0.06
25050 H 128.85556176471857 164.2587167159486 69.83723063559678 H 0.0 **** 0.06
25051 C 3.3571478982123466 130.45190326089568 150.6048482194842 C 0.0 **** -0.24
25052 H 2.3358335542991426 130.82279221797796 150.68972769136997 H 0.0 **** 0.06
25053 H 3.995465157971566 131.23372627619995 150.19225520051066 H 0.0 **** 0.06
25054 H 3.374134200748479 129.58268653433817 149.94635607291184 H 0.0 **** 0.06
25055 H 3.7232044083163487 130.1671199796209 151.59163607076357 H 0.0 **** 0.06
25056 C 139.83195921819117 94.0771646077303 86.46543524755076 C 0.0 **** -0.24
25057 H 140.40016002353372 93.18620795985707 86.20013878123488 H 0.0 **** 0.06
25058 H 139.6017926364391 94.64310390886307 85.56167077501557 H 0.0 **** 0.06
25059 H 140.4204624774996 94.69590432293667 87.14248340405852 H 0.0 **** 0.06
25060 H 138.90478492355209 93.7828336899227 86.95595665825915 H 0.0 **** 0.06
25061 C 162.32905484259487 63.71912065598735 42.12760016719895 C 0.0 **** -0.24
25062 H 162.48257857480692 64.03294910553177 41.09597413312113 H 0.0 **** 0.06
25063 H 162.78003568981285 64.45002281018361 42.800316666018006 H 0.0 **** 0.06
25064 H 162.79272492296894 62.74519861752748 42.284781776248025 H 0.0 **** 0.06
25065 H 161.26053135305358 63.64934486576607 42.330674103935095 H 0.0 **** 0.06
25066 C 158.03306533053467 134.2937619441314 193.05662018206255 C 0.0 **** -0.24
25067 H 158.48709124331558 133.32252053976356 193.25246894157738 H 0.0 **** 0.06
25068 H 157.19329187741738 134.44585995704938 193.7337042657817 H 0.0 **** 0.06
25069 H 157.67984084691187 134.32837759140847 192.02562824636038 H 0.0 **** 0.06
25070 H 158.77361567559302 135.0782803338164 193.21233215915396 H 0.0 **** 0.06
25071 C 116.25399172482123 174.9847301454546 186.37909575980905 C 0.0 **** -0.24
25072 H 115.7612804823733 174.09697771756106 186.77427720793025 H 0.0 **** 0.06
25073 H 115.85014168789188 175.8718702247835 186.86712625792802 H 0.0 **** 0.06
25074 H 116.07998912363281 175.04880343091972 185.3045652294328 H 0.0 **** 0.06
25075 H 117.32580028926948 174.9206054883113 186.5705156917099 H 0.0 **** 0.06
25076 C 15.450293923503892 198.8759103110324 165.20926531268935 C 0.0 **** -0.24
25077 H 15.764408086236145 199.7263577514881 164.6051017911261 H 0.0 **** 0.06
25078 H 16.14933577303283 198.05154391832218 165.0675095940599 H 0.0 **** 0.06
25079 H 14.452378910022617 198.56223819616542 164.90230835686998 H 0.0 **** 0.06
25080 H 15.433329822974613 199.1628743187497 166.2597670888977 H 0.0 **** 0.06
25081 C 207.39691843475885 55.516761839684264 58.27757977879196 C 0.0 **** -0.24
25082 H 207.5464722890615 56.57778248555003 58.076754042228174 H 0.0 **** 0.06
25083 H 208.3575593769102 55.049998489136684 58.49864564311133 H 0.0 **** 0.06
25084 H 206.95455042571155 55.04141871382335 57.40151664676546 H 0.0 **** 0.06
25085 H 206.72929872026404 55.3988567220006 59.13041294948607 H 0.0 **** 0.06
25086 C 74.33922112822614 173.61814824323935 131.58919738161177 C 0.0 **** -0.24
25087 H 73.30785470326532 173.27006518499246 131.63681673143265 H 0.0 **** 0.06
25088 H 75.01421722726741 172.77516094232269 131.74306370110605 H 0.0 **** 0.06
25089 H 74.50651613520694 174.36468658412278 132.3651445518525 H 0.0 **** 0.06
25090 H 74.52842897382999 174.06049034243455 130.61133236636368 H 0.0 **** 0.06
25091 C 127.3504752895066 214.29038628072993 39.59537723088954 C 0.0 **** -0.24
25092 H 127.21524191321681 215.32321850224116 39.914913858514495 H 0.0 **** 0.06
25093 H 126.56987223056085 214.0271025944614 38.8809664824428 H 0.0 **** 0.06
25094 H 127.28892330482508 213.63108110467743 40.4612624292961 H 0.0 **** 0.06
25095 H 128.32648862434218 214.18158626200946 39.12335323966009 H 0.0 **** 0.06
25096 C 124.25942291186847 154.61757860302345 143.53988486035144 C 0.0 **** -0.24
25097 H 124.19439915774505 153.53189885554718 143.46516845715422 H 0.0 **** 0.06
25098 H 124.6431976952329 154.89086554321636 144.52317795655182 H 0.0 **** 0.06
25099 H 123.26882782533535 155.05017306552827 143.40216220414527 H 0.0 **** 0.06
25100 H 124.93093095225355 154.99517434950428 142.76921986884378 H 0.0 **** 0.06
25101 C 142.4509856669908 115.33762206732759 186.79365589881553 C 0.0 **** -0.24
25102 H 143.3551422362916 115.68425559713704 187.29304874315363 H 0.0 **** 0.06
25103 H 141.59548669424174 115.47232047859082 187.45544814748735 H 0.0 **** 0.06
25104 H 142.55499296289486 114.28133622074766 186.54523723566956 H 0.0 **** 0.06
25105 H 142.2975192723947 115.9122802199176 185.87976245589542 H 0.0 **** 0.06
25106 C 135.6993115436522 206.28460617724352 82.83086519292009 C 0.0 **** -0.24
25107 H 135.68382010440013 206.69448398668135 81.82117101800624 H 0.0 **** 0.06
25108 H 135.75957484182823 205.19719454370937 82.7810513509343 H 0.0 **** 0.06
25109 H 134.78830777238477 206.57510996485934 83.35420238485985 H 0.0 **** 0.06
25110 H 136.5652154985363 206.67302843833954 83.36605918351763 H 0.0 **** 0.06
25111 C 106.95158593959148 156.85413094544384 16.964536647135077 C 0.0 **** -0.24
25112 H 106.99694259945029 155.76741727412394 17.02438045146205 H 0.0 **** 0.06
25113 H 107.96053011938285 157.26364088858082 17.022220269685164 H 0.0 **** 0.06
25114 H 106.35570072512063 157.23911657426618 17.79272263577886 H 0.0 **** 0.06
25115 H 106.49291836104767 157.1477005040653 16.019876857835982 H 0.0 **** 0.06
25116 C 188.12293355440866 99.47354049988691 168.20511578568016 C 0.0 **** -0.24
25117 H 187.29406715053244 100.1634199561678 168.04552893663475 H 0.0 **** 0.06
25118 H 187.73619194283725 98.51178832357708 168.54282397635586 H 0.0 **** 0.06
25119 H 188.79318460272322 99.88172105244907 168.9619105488764 H 0.0 **** 0.06
25120 H 188.66833082013872 99.33952015210399 167.27107483297422 H 0.0 **** 0.06
25121 C 154.51013674624096 121.20658806791926 53.88921814827086 C 0.0 **** -0.24
25122 H 155.47200414572342 121.23750325157732 53.37690134926065 H 0.0 **** 0.06
25123 H 154.02303227605972 122.17824127042877 53.805281080601944 H 0.0 **** 0.06
25124 H 154.66646455642638 120.96853513000531 54.94149261628418 H 0.0 **** 0.06
25125 H 153.88075451065544 120.44351508700038 53.43317787076742 H 0.0 **** 0.06
25126 C 137.0196603142595 62.02250185663462 210.09740331150647 C 0.0 **** -0.24
25127 H 136.47419883129623 61.13621781947808 210.42123430016375 H 0.0 **** 0.06
25128 H 137.9369868996563 61.72051559987193 209.5917815387466 H 0.0 **** 0.06
25129 H 137.26722364330845 62.63341742134162 210.96642847501897 H 0.0 **** 0.06
25130 H 136.39985874305364 62.60108290272427 209.4120011434402 H 0.0 **** 0.06
25131 C 159.0266718848241 55.41078765780601 42.23360132320323 C 0.0 **** -0.24
25132 H 159.3787113884157 56.065294328265466 43.03061031516188 H 0.0 **** 0.06
25133 H 159.76961069057165 55.376463403636095 41.43692767078966 H 0.0 **** 0.06
25134 H 158.0863664549084 55.79458016966805 41.83777542238187 H 0.0 **** 0.06
25135 H 158.87199900540054 54.406812729654575 42.62909188447958 H 0.0 **** 0.06
25136 C 64.00624439711015 14.844975108298627 176.89594691481932 C 0.0 **** -0.24
25137 H 63.68596362471021 15.840440026814065 176.58917672130877 H 0.0 **** 0.06
25138 H 64.08497811463866 14.202631752986406 176.0179200473815 H 0.0 **** 0.06
25139 H 63.27658152534059 14.425388906420523 177.58909889185855 H 0.0 **** 0.06
25140 H 64.97743698971777 14.910140931817182 177.38577187140731 H 0.0 **** 0.06
25141 C 43.43494477284423 179.7951028661759 177.55529843001278 C 0.0 **** -0.24
25142 H 43.79609122307983 179.0613348377491 176.8341050626196 H 0.0 **** 0.06
25143 H 42.61189890377227 180.35946049260895 177.1178831938039 H 0.0 **** 0.06
25144 H 44.2451550076745 180.47561651222185 177.81567253886345 H 0.0 **** 0.06
25145 H 43.08865593993795 179.2816487966501 178.452355898671 H 0.0 **** 0.06
25146 C 202.0772918375481 157.20912317927213 63.38627641152863 C 0.0 **** -0.24
25147 H 202.75717458397264 157.58490544506628 62.621726037396456 H 0.0 **** 0.06
25148 H 201.2714722843349 157.92682830900856 63.53953217226868 H 0.0 **** 0.06
25149 H 202.6222058235421 157.0683491167593 64.31976746597337 H 0.0 **** 0.06
25150 H 201.65890181346168 156.25597286281408 63.062218690772454 H 0.0 **** 0.06
25151 C 63.627567566345306 104.49048651441241 166.36016555869003 C 0.0 **** -0.24
25152 H 64.3389350899653 104.57001495951219 165.53856918739248 H 0.0 **** 0.06
25153 H 64.05794766478033 103.88092064870459 167.15542625942095 H 0.0 **** 0.06
25154 H 62.70881964469828 104.02620524605886 166.00257600738723 H 0.0 **** 0.06
25155 H 63.404815113921615 105.48576104675804 166.7451033346358 H 0.0 **** 0.06
25156 C 170.27323015169623 29.63346504054401 71.95943214089904 C 0.0 **** -0.24
25157 H 169.37454806564944 30.25014764254618 71.98120869547266 H 0.0 **** 0.06
25158 H 171.13772713223125 30.25974909043056 71.73670492058982 H 0.0 **** 0.06
25159 H 170.17059061682062 28.868656268655982 71.18957838488 H 0.0 **** 0.06
25160 H 170.41053460619318 29.155983941440354 72.92967820525338 H 0.0 **** 0.06
25161 C 101.48824391189531 93.53668193010675 153.09978984011263 C 0.0 **** -0.24
25162 H 100.44959939040812 93.21535818678099 153.01579124899717 H 0.0 **** 0.06
25163 H 101.72829704057862 93.71845333801876 154.14721658298595 H 0.0 **** 0.06
25164 H 101.63126872709715 94.45330203473871 152.52910113975986 H 0.0 **** 0.06
25165 H 102.14131085763894 92.75838839788089 152.7065509077646 H 0.0 **** 0.06
25166 C 47.68454025113465 124.81240439722121 65.83623720159846 C 0.0 **** -0.24
25167 H 47.975073125388064 124.94754668955169 66.87832230135484 H 0.0 **** 0.06
25168 H 47.6570305902282 123.7475989114438 65.60276204400765 H 0.0 **** 0.06
25169 H 48.40828620662768 125.30743538600173 65.19030979504231 H 0.0 **** 0.06
25170 H 46.69703952425351 125.24536748500977 65.67613905008756 H 0.0 **** 0.06
25171 C 89.56126797357012 5.031845335949953 36.57462106578396 C 0.0 **** -0.24
25172 H 88.66823304685181 5.60608250048746 36.820749956250495 H 0.0 **** 0.06
25173 H 89.29445689766408 3.9825418922319002 36.44688196877479 H 0.0 **** 0.06
25174 H 90.28701554861453 5.126974155698008 37.38192465885675 H 0.0 **** 0.06
25175 H 89.99477216274721 5.413036581224709 35.6492014230746 H 0.0 **** 0.06
25176 C 10.972958829287407 145.4797850061973 76.9451947053068 C 0.0 **** -0.24
25177 H 11.316865397151346 145.27120982726564 77.95835846646172 H 0.0 **** 0.06
25178 H 10.130462864931644 146.17062587109717 76.98321565914362 H 0.0 **** 0.06
25179 H 10.65867931552215 144.54986574846646 76.46996453013882 H 0.0 **** 0.06
25180 H 11.784423008783193 145.9252401024919 76.3707212426739 H 0.0 **** 0.06
25181 C 84.04671611829097 181.2636516185851 197.81441958581703 C 0.0 **** -0.24
25182 H 83.548495296409 180.29565701230376 197.86150016064633 H 0.0 **** 0.06
25183 H 83.38548146816747 181.9896801237678 197.34286846432104 H 0.0 **** 0.06
25184 H 84.96309625346318 181.17288081218555 197.2311492824275 H 0.0 **** 0.06
25185 H 84.29086753370613 181.59537387645847 198.8238375243527 H 0.0 **** 0.06
25186 C 7.862483936516725 138.5789947609593 140.66865274570017 C 0.0 **** -0.24
25187 H 7.6415246483342685 139.4096235362831 139.99738976551743 H 0.0 **** 0.06
25188 H 6.931420297266413 138.0983922820704 140.9703610599626 H 0.0 **** 0.06
25189 H 8.381107155438059 138.9532147150291 141.55023115233087 H 0.0 **** 0.06
25190 H 8.495025702527926 137.85608683440375 140.15408480055356 H 0.0 **** 0.06
25191 C 147.24731884194694 110.78265073639078 4.382646053973886 C 0.0 **** -0.24
25192 H 146.4640101762448 111.17578468587276 3.734113572792701 H 0.0 **** 0.06
25193 H 147.18783220234093 109.69432252907676 4.405845124361512 H 0.0 **** 0.06
25194 H 147.1148336701919 111.17571582322994 5.391177992908773 H 0.0 **** 0.06
25195 H 148.22119057726064 111.08576134161176 3.999676183625617 H 0.0 **** 0.06
25196 C 50.43944319479846 170.00261156128823 169.84530602970426 C 0.0 **** -0.24
25197 H 49.604296281110294 169.38702941639855 170.18047524530706 H 0.0 **** 0.06
25198 H 50.367037475049244 170.99073444323 170.2989266935902 H 0.0 **** 0.06
25199 H 50.40797889643056 170.096881112034 168.75945640812213 H 0.0 **** 0.06
25200 H 51.37769448567309 169.53347607588245 170.14228002949181 H 0.0 **** 0.06
25201 C 76.28650538756553 189.65225180549135 112.25135466253828 C 0.0 **** -0.24
25202 H 76.13384977598547 190.52238473286445 112.89018648473377 H 0.0 **** 0.06
25203 H 75.5800957688637 188.86957968621294 112.5287730263402 H 0.0 **** 0.06
25204 H 77.30560157812819 189.28370912238864 112.37675568220094 H 0.0 **** 0.06
25205 H 76.12850704636999 189.9333153459628 111.21063523380631 H 0.0 **** 0.06
25206 C 172.88153380885575 192.6332947657488 74.83928379632373 C 0.0 **** -0.24
25207 H 171.97866999666797 192.31078151733817 74.322536037972 H 0.0 **** 0.06
25208 H 173.58527587698495 191.8019813481228 74.89429526071261 H 0.0 **** 0.06
25209 H 172.62573318674143 192.96041967700893 75.8475875640868 H 0.0 **** 0.06
25210 H 173.33681022407424 193.45949642512926 74.29399091570029 H 0.0 **** 0.06
25211 C 121.51458562524185 123.34693732282206 79.45073767132413 C 0.0 **** -0.24
25212 H 120.5668667158077 123.46565407161818 79.9766343829358 H 0.0 **** 0.06
25213 H 122.25498709263134 124.02263859447906 79.88121139717373 H 0.0 **** 0.06
25214 H 121.37681439113355 123.58250221491393 78.39557872559857 H 0.0 **** 0.06
25215 H 121.85943794099292 122.31768120134483 79.55259474244338 H 0.0 **** 0.06
25216 C 172.83371976709066 214.75115225857357 127.28780007064721 C 0.0 **** -0.24
25217 H 173.723288606334 215.27457956587432 126.93793114612104 H 0.0 **** 0.06
25218 H 172.41133937430774 214.16611460360792 126.46944383932335 H 0.0 **** 0.06
25219 H 172.09767212434517 215.47696622403691 127.634156966264 H 0.0 **** 0.06
25220 H 173.10360148406167 214.0867278436753 128.10828784149828 H 0.0 **** 0.06
25221 C 131.83843516237647 61.91479434696056 172.05099162431202 C 0.0 **** -0.24
25222 H 132.37883621149234 62.64920261698859 172.648782011096 H 0.0 **** 0.06
25223 H 131.41197381019748 61.155723555185574 172.7075450509887 H 0.0 **** 0.06
25224 H 132.52531841030975 61.44342000837979 171.34828559179283 H 0.0 **** 0.06
25225 H 131.03951396970416 62.41070869788511 171.50052363598803 H 0.0 **** 0.06
25226 C 81.0301486775286 206.56544292203364 5.273401729041666 C 0.0 **** -0.24
25227 H 81.10164541939879 207.59200556582746 5.632644667958289 H 0.0 **** 0.06
25228 H 79.98278954676597 206.26846197409716 5.226643931876765 H 0.0 **** 0.06
25229 H 81.56611600247133 205.90352197327178 5.953873496715943 H 0.0 **** 0.06
25230 H 81.47221105031817 206.49744927802516 4.279353007484019 H 0.0 **** 0.06
25231 C 72.2002984733922 29.80204462720519 60.51607400851623 C 0.0 **** -0.24
25232 H 71.98640506956582 30.637865179204866 59.848778137700776 H 0.0 **** 0.06
25233 H 72.76400521543133 30.1599598424734 61.37709754450981 H 0.0 **** 0.06
25234 H 72.78568591604528 29.053414117856846 59.98295579815971 H 0.0 **** 0.06
25235 H 71.26350958164068 29.357804592335185 60.85328982877428 H 0.0 **** 0.06
25236 C 173.63264183641593 198.36935122069102 162.196187812343 C 0.0 **** -0.24
25237 H 173.74948160454008 198.9688153174318 163.09865575694067 H 0.0 **** 0.06
25238 H 172.57093846591502 198.2067933571812 162.0039195799879 H 0.0 **** 0.06
25239 H 174.12800426008315 197.40835213120167 162.33212141250885 H 0.0 **** 0.06
25240 H 174.07908598025801 198.8927122829969 161.35182063576303 H 0.0 **** 0.06
25241 C 141.94375739181396 105.12143331100928 169.38840965068408 C 0.0 **** -0.24
25242 H 141.6167989752662 104.08253264872342 169.34840040706487 H 0.0 **** 0.06
25243 H 142.7410860029794 105.27901376873272 168.6607767389616 H 0.0 **** 0.06
25244 H 142.31492979223356 105.34684617844069 170.38825825321544 H 0.0 **** 0.06
25245 H 141.10359374337304 105.77547795493449 169.15541011964078 H 0.0 **** 0.06
25246 C 146.77117666699405 214.40756609379832 138.47023341548498 C 0.0 **** -0.24
25247 H 146.2219965970308 214.44818650931717 139.41035168026804 H 0.0 **** 0.06
25248 H 147.5839687230876 215.13375419124952 138.4934511757947 H 0.0 **** 0.06
25249 H 146.0983817268248 214.64205038293156 137.64534662154745 H 0.0 **** 0.06
25250 H 147.1807599310103 213.407563503167 138.33220268185346 H 0.0 **** 0.06
25251 C 16.790128057803827 119.82483694873041 158.59273335567997 C 0.0 **** -0.24
25252 H 16.023401741890268 120.57144160683806 158.7995941234509 H 0.0 **** 0.06
25253 H 17.06390320794941 119.3185040932773 159.51886528975086 H 0.0 **** 0.06
25254 H 17.66911371552493 120.3127986851395 158.17230181128917 H 0.0 **** 0.06
25255 H 16.403613307697867 119.09527406038826 157.8801251185135 H 0.0 **** 0.06
25256 C 164.99643910350693 52.119007075244 162.94759211144802 C 0.0 **** -0.24
25257 H 165.42301048345016 52.77165583056083 162.1858260067087 H 0.0 **** 0.06
25258 H 164.01689410923234 51.76964401745829 162.61906932954972 H 0.0 **** 0.06
25259 H 164.89235684129838 52.67120743272406 163.88142870292506 H 0.0 **** 0.06
25260 H 165.6542998259137 51.26344230807359 163.10195967346715 H 0.0 **** 0.06
25261 C 11.154522979732107 128.39102979271007 129.82206829968345 C 0.0 **** -0.24
25262 H 11.994965993619203 128.89161054585236 130.30366107313762 H 0.0 **** 0.06
25263 H 11.326145819904497 128.34602269502187 128.74662183522474 H 0.0 **** 0.06
25264 H 10.238542259894743 128.94707562447877 130.02181186169423 H 0.0 **** 0.06
25265 H 11.059764974914884 127.37963853788794 130.2182245809704 H 0.0 **** 0.06
25266 C 113.46709391308634 22.56888693827956 42.89717586182769 C 0.0 **** -0.24
25267 H 113.08287292406614 22.384738955553217 41.89424471916135 H 0.0 **** 0.06
25268 H 112.83213471230441 22.066432120027542 43.62636588706195 H 0.0 **** 0.06
25269 H 113.47041574910348 23.641043121600745 43.09390720871242 H 0.0 **** 0.06
25270 H 114.48400358152871 22.182043330953178 42.97307652247109 H 0.0 **** 0.06
25271 C 59.0776779626421 185.05310957350787 54.352596827079495 C 0.0 **** -0.24
25272 H 58.89969586876265 184.89617519001072 55.416493491021 H 0.0 **** 0.06
25273 H 59.42386435748922 184.1229225010718 53.90176633676013 H 0.0 **** 0.06
25274 H 59.83676943395011 185.82508136258713 54.2220370690375 H 0.0 **** 0.06
25275 H 58.152496312491905 185.3679219398972 53.871280713027545 H 0.0 **** 0.06
25276 C 214.92365136515082 2.556446161629836 183.19098475654812 C 0.0 **** -0.24
25277 H 215.94569733502243 2.575011654705648 183.57037967940434 H 0.0 **** 0.06
25278 H 214.29264861622943 3.189017300154916 183.81689485842927 H 0.0 **** 0.06
25279 H 214.54721543947988 1.5340904778913682 183.21055444791318 H 0.0 **** 0.06
25280 H 214.91027487094897 2.9294192316261274 182.16674928594045 H 0.0 **** 0.06
25281 C 48.48696226696745 148.80596200772834 193.50289220705992 C 0.0 **** -0.24
25282 H 47.912382658728916 149.04642831469982 194.39719381141092 H 0.0 **** 0.06
25283 H 49.47292321025827 148.43966191197444 193.79226122314765 H 0.0 **** 0.06
25284 H 48.59689342999536 149.69999150510267 192.88902044867743 H 0.0 **** 0.06
25285 H 47.96575805616908 148.03604484395822 192.93325119550371 H 0.0 **** 0.06
25286 C 123.81678315574419 193.78955567545765 105.941211363379 C 0.0 **** -0.24
25287 H 124.4209973034408 193.34541893546412 105.1495428892123 H 0.0 **** 0.06
25288 H 124.36952868197261 193.75624969767458 106.88108809145926 H 0.0 **** 0.06
25289 H 122.88810728127294 193.22957283219444 106.04640382909541 H 0.0 **** 0.06
25290 H 123.59058906420165 194.82487190884044 105.68889877387447 H 0.0 **** 0.06
25291 C 106.42712181731277 142.73494642824494 24.69061990652898 C 0.0 **** -0.24
25292 H 105.65088351768536 142.36433070224132 25.359786713412404 H 0.0 **** 0.06
25293 H 106.17025822689057 142.48177722295782 23.662001130432003 H 0.0 **** 0.06
25294 H 107.38047844156465 142.27445913138496 24.950876976989463 H 0.0 **** 0.06
25295 H 106.50744446249887 143.81735043004625 24.79089944720178 H 0.0 **** 0.06
25296 C 92.89928244365588 36.899273101363036 136.6684760386413 C 0.0 **** -0.24
25297 H 91.96148381415672 37.41212328142362 136.4546897869783 H 0.0 **** 0.06
25298 H 92.92982719308064 36.62390211388623 137.72316414021446 H 0.0 **** 0.06
25299 H 93.73473752104685 37.561210682775936 136.44131402014568 H 0.0 **** 0.06
25300 H 92.96977084551348 36.00089402913733 136.05519016268397 H 0.0 **** 0.06
25301 C 88.02734572392467 156.95870398548476 62.691614584835236 C 0.0 **** -0.24
25302 H 88.44033892737593 156.75397832023015 63.679850978234526 H 0.0 **** 0.06
25303 H 88.57820408906582 156.3889516823217 61.94274174895645 H 0.0 **** 0.06
25304 H 88.11442931267072 158.02402109246253 62.476521447397715 H 0.0 **** 0.06
25305 H 86.97640087107607 156.66825683354608 62.67031845542829 H 0.0 **** 0.06
25306 C 88.62831676699763 100.37358855950403 27.195486708194466 C 0.0 **** -0.24
25307 H 88.48039345454329 99.33512831080724 27.490780005790043 H 0.0 **** 0.06
25308 H 89.5961415507174 100.71946696928445 27.55818416658161 H 0.0 **** 0.06
25309 H 87.8373786893684 100.98888476717339 27.625004670871533 H 0.0 **** 0.06
25310 H 88.59779128227915 100.4501515610013 26.10940549170283 H 0.0 **** 0.06
25311 C 203.00975741425336 111.38280772668482 171.33446299316785 C 0.0 **** -0.24
25312 H 202.53149886798542 112.34122338513497 171.53609216409814 H 0.0 **** 0.06
25313 H 202.99350273023654 111.18759558673425 170.26190849421852 H 0.0 **** 0.06
25314 H 202.47291143351015 110.59235587895996 171.85692482923386 H 0.0 **** 0.06
25315 H 204.04319783874917 111.41217237649421 171.68183565645666 H 0.0 **** 0.06
25316 C 68.59179303195316 87.44091421843507 66.90920911119657 C 0.0 **** -0.24
25317 H 68.55870971303278 87.43894145612614 65.81972494958691 H 0.0 **** 0.06
25318 H 68.94497855775239 86.47236235532716 67.2633509076318 H 0.0 **** 0.06
25319 H 67.59262268585091 87.6302100611843 67.30236410727409 H 0.0 **** 0.06
25320 H 69.26975179490695 88.22299455531709 67.25118630510444 H 0.0 **** 0.06
25321 C 138.14018306715496 6.444192088585453 64.86238775595734 C 0.0 **** -0.24
25322 H 138.62487837265138 7.394679910011121 64.63847593082608 H 0.0 **** 0.06
25323 H 138.8067732289312 5.8285911298083874 65.46648555829324 H 0.0 **** 0.06
25324 H 137.91023737885814 5.925557866863812 63.93168927612169 H 0.0 **** 0.06
25325 H 137.21746936918674 6.628803878720646 65.41229597687641 H 0.0 **** 0.06
25326 C 206.39299237337528 109.7803535762673 109.0093686961696 C 0.0 **** -0.24
25327 H 206.81735026773714 108.77960537624789 108.93704627670719 H 0.0 **** 0.06
25328 H 207.0140165299038 110.47877987458828 108.447500510996 H 0.0 **** 0.06
25329 H 206.35741747387686 110.08543875811033 110.0551270776685 H 0.0 **** 0.06
25330 H 205.3838788316853 109.77808393923733 108.59667164699486 H 0.0 **** 0.06
25331 C 204.84797114619218 125.17622723744654 41.433147725124115 C 0.0 **** -0.24
25332 H 203.76151945184853 125.13935779779746 41.50337928957606 H 0.0 **** 0.06
25333 H 205.13688296304593 125.79863679149037 40.585977462690266 H 0.0 **** 0.06
25334 H 205.23666757128922 124.16750567972332 41.291832288046635 H 0.0 **** 0.06
25335 H 205.2574426908199 125.59827314810008 42.350839632839325 H 0.0 **** 0.06
25336 C 166.87828192908063 58.702213479606314 193.6183715931095 C 0.0 **** -0.24
25337 H 167.62356945573782 59.48402453645376 193.47354720601942 H 0.0 **** 0.06
25338 H 166.02428569218142 59.110819791023715 194.15798296735892 H 0.0 **** 0.06
25339 H 167.31539946800325 57.885603362415196 194.1924885678589 H 0.0 **** 0.06
25340 H 166.5501048655438 58.32914965748698 192.64792048894662 H 0.0 **** 0.06
25341 C 134.15374860152468 93.05781502626678 103.83408200168604 C 0.0 **** -0.24
25342 H 133.6374672251145 92.0984073586917 103.85019380812527 H 0.0 **** 0.06
25343 H 133.92555786411396 93.60833973651125 104.74628847683674 H 0.0 **** 0.06
25344 H 133.82272129882108 93.63371987686622 102.9695354879148 H 0.0 **** 0.06
25345 H 135.22920540755962 92.89072251746808 103.76889841529153 H 0.0 **** 0.06
25346 C 208.2276823634117 72.09823282651091 182.40534106177293 C 0.0 **** -0.24
25347 H 207.5266532771201 72.73351368472747 181.8629688588814 H 0.0 **** 0.06
25348 H 207.80276908543152 71.8332620239593 183.37356434108176 H 0.0 **** 0.06
25349 H 209.16442262685842 72.63572654008514 182.5541742928265 H 0.0 **** 0.06
25350 H 208.41719574748237 71.19210671740235 181.8303590798592 H 0.0 **** 0.06
25351 C 26.715388798221596 214.1546846100086 147.81080137917633 C 0.0 **** -0.24
25352 H 27.31313848153752 213.91903194408707 146.93004245541943 H 0.0 **** 0.06
25353 H 25.65657668273826 214.09162107862704 147.55968182180942 H 0.0 **** 0.06
25354 H 26.949751245105972 215.16531245018814 148.14797608262546 H 0.0 **** 0.06
25355 H 26.944486476237557 213.44481936016987 148.60575717784695 H 0.0 **** 0.06
25356 C 12.288553602396576 51.72359038292814 172.94707541374703 C 0.0 **** -0.24
25357 H 12.953420443009634 50.878933855978346 172.7691187998194 H 0.0 **** 0.06
25358 H 11.330647673392718 51.540703968370735 172.4577933206474 H 0.0 **** 0.06
25359 H 12.736065744182838 52.63017339024583 172.54140036246602 H 0.0 **** 0.06
25360 H 12.131826777244612 51.84316124263938 174.01899362167705 H 0.0 **** 0.06
25361 C 102.96144761014735 60.09596250667336 45.17391778854977 C 0.0 **** -0.24
25362 H 103.69507052902885 60.798870553499015 44.78016683422162 H 0.0 **** 0.06
25363 H 103.47669006343405 59.26107149298922 45.64991606904569 H 0.0 **** 0.06
25364 H 102.34229535594712 59.72244291679131 44.35841626465351 H 0.0 **** 0.06
25365 H 102.33114901461356 60.60007598424511 45.90631891774075 H 0.0 **** 0.06
25366 C 57.0485508540046 66.19544197395456 216.7117674983341 C 0.0 **** -0.24
25367 H 56.99784233652281 65.46905720148735 217.52272677052514 H 0.0 **** 0.06
25368 H 57.406703516864724 67.14920798467766 217.09946610045913 H 0.0 **** 0.06
25369 H 56.056433831210796 66.32709763270789 216.2794056763375 H 0.0 **** 0.06
25370 H 57.734802596746576 65.83518598757522 215.9444609559688 H 0.0 **** 0.06
25371 C 132.3361530954533 152.94101117584864 200.08755764946832 C 0.0 **** -0.24
25372 H 131.78019774652057 153.1179380901193 199.16709871734662 H 0.0 **** 0.06
25373 H 133.04661049378052 152.12826678792982 199.93256731927966 H 0.0 **** 0.06
25374 H 131.64250967844606 152.6709939544757 200.88429515918207 H 0.0 **** 0.06
25375 H 132.8744404461043 153.84640856239997 200.36655124116908 H 0.0 **** 0.06
25376 C 196.0983369812252 129.23372564830908 89.55181950213951 C 0.0 **** -0.24
25377 H 196.12443051512182 128.8263012942209 90.56282824191733 H 0.0 **** 0.06
25378 H 195.09106114090866 129.58358634992334 89.32741140255094 H 0.0 **** 0.06
25379 H 196.38182146915526 128.45805489482171 88.84105614568763 H 0.0 **** 0.06
25380 H 196.79736531850756 130.06729811895997 89.47946297540217 H 0.0 **** 0.06
25381 C 47.003985627543614 101.78975858585967 37.670990160712165 C 0.0 **** -0.24
25382 H 47.294570905549335 102.0085910190494 36.64368023079146 H 0.0 **** 0.06
25383 H 47.69378670462666 101.05915630967716 38.09567823015027 H 0.0 **** 0.06
25384 H 45.99236591460533 101.38503644439668 37.68390017083229 H 0.0 **** 0.06
25385 H 47.03659953046072 102.70594658599164 38.260743517043466 H 0.0 **** 0.06
25386 C 35.059845910079886 39.64085239236368 146.0326059118243 C 0.0 **** -0.24
25387 H 35.22795717042327 40.25093799834194 145.1446738719037 H 0.0 **** 0.06
25388 H 35.57829077422738 40.08594192257286 146.8825379029014 H 0.0 **** 0.06
25389 H 35.44214643988302 38.63422109270137 145.85960333976925 H 0.0 **** 0.06
25390 H 33.99179140704726 39.593150816851406 146.2428040554778 H 0.0 **** 0.06
25391 C 117.0883562619465 57.932981429347535 167.2494717567209 C 0.0 **** -0.24
25392 H 116.56370388846938 57.22618723472169 167.89198944705402 H 0.0 **** 0.06
25393 H 118.14487344228678 57.66726075965556 167.20331848335053 H 0.0 **** 0.06
25394 H 116.98293929955207 58.938787253333544 167.6550010775421 H 0.0 **** 0.06
25395 H 116.6607600830834 57.8987122371322 166.24672687849642 H 0.0 **** 0.06
25396 C 123.97904210813515 193.25559277269952 40.79542070576662 C 0.0 **** -0.24
25397 H 123.3866771502942 194.06324597833824 41.2262213608754 H 0.0 **** 0.06
25398 H 123.94417979283294 192.38867003746594 41.45509011078252 H 0.0 **** 0.06
25399 H 125.01183358242515 193.58502234372816 40.68132834552972 H 0.0 **** 0.06
25400 H 123.57218974931006 192.9881901379823 39.819901800082846 H 0.0 **** 0.06
25401 C 47.68963947777934 197.04396398873388 93.97152840815734 C 0.0 **** -0.24
25402 H 47.96531444736388 198.0602658099357 93.69303778432116 H 0.0 **** 0.06
25403 H 46.91739385754238 196.67703513625708 93.29424701674448 H 0.0 **** 0.06
25404 H 47.309171448509886 197.03774297673056 94.99367690003767 H 0.0 **** 0.06
25405 H 48.56690452694977 196.3991287154357 93.90762485586912 H 0.0 **** 0.06
25406 C 16.4006795348989 136.15177473449126 80.8506852001903 C 0.0 **** -0.24
25407 H 16.75018973788083 135.27303138874515 80.3085810690111 H 0.0 **** 0.06
25408 H 16.087329409800603 135.85861525910497 81.85223367279059 H 0.0 **** 0.06
25409 H 15.557896104663044 136.593886083849 80.31960067210196 H 0.0 **** 0.06
25410 H 17.208849508653913 136.88058531220094 80.91974740730791 H 0.0 **** 0.06
25411 C 213.48795263893606 193.4649881419112 109.46590120980517 C 0.0 **** -0.24
25412 H 212.7230704972039 194.24079639940615 109.44523769676857 H 0.0 **** 0.06
25413 H 214.32943707025163 193.80169213668924 110.0725753665198 H 0.0 **** 0.06
25414 H 213.83028279702765 193.2648904179452 108.4499085309115 H 0.0 **** 0.06
25415 H 213.07095965368848 192.5545703655408 109.89538164479535 H 0.0 **** 0.06
25416 C 66.55038043656981 87.4093498665669 105.41645498788222 C 0.0 **** -0.24
25417 H 65.76738089052378 88.12818150107277 105.17831027984192 H 0.0 **** 0.06
25418 H 67.44269067188128 87.6371926840804 104.83271254091414 H 0.0 **** 0.06
25419 H 66.20583023143627 86.40308004943422 105.1766209619538 H 0.0 **** 0.06
25420 H 66.78679754608811 87.46874235821444 106.47893257443081 H 0.0 **** 0.06
25421 C 109.27139410646942 146.85970842252374 64.90134575557607 C 0.0 **** -0.24
25422 H 109.54173096680609 147.91475388104732 64.9166483967767 H 0.0 **** 0.06
25423 H 108.39862268200943 146.69824028944367 65.53344480364723 H 0.0 **** 0.06
25424 H 110.10536749081768 146.26575526477086 65.2749500560752 H 0.0 **** 0.06
25425 H 109.04092923015753 146.55839836870928 63.87892395008895 H 0.0 **** 0.06
25426 C 154.02005914409654 75.80152542272708 208.97194146255845 C 0.0 **** -0.24
25427 H 154.04706306419342 74.90229152571982 209.58786218287528 H 0.0 **** 0.06
25428 H 153.47510035580905 75.59507557119474 208.05131097284305 H 0.0 **** 0.06
25429 H 155.03852755777928 76.10678842865997 208.73147789502013 H 0.0 **** 0.06
25430 H 153.52066056259514 76.60131413458623 209.518947141488 H 0.0 **** 0.06
25431 C 156.19728234888726 45.27819815263092 104.35855157272105 C 0.0 **** -0.24
25432 H 157.1132133937324 44.816562448730906 103.98768642250447 H 0.0 **** 0.06
25433 H 155.36184512105666 44.59265893654293 104.21685910143624 H 0.0 **** 0.06
25434 H 156.00856294523925 46.2004658102249 103.80972420526602 H 0.0 **** 0.06
25435 H 156.30804574888572 45.50186791458242 105.41976853915027 H 0.0 **** 0.06
25436 C 117.78077720818573 0.14116905611968633 58.181971930126494 C 0.0 **** -0.24
25437 H 117.00378234351717 0.6379827834320366 57.59980076934994 H 0.0 **** 0.06
25438 H 118.13389879888177 0.8128891505244411 58.96421063314092 H 0.0 **** 0.06
25439 H 118.61026276836861 -0.12471742823972676 57.527636237140996 H 0.0 **** 0.06
25440 H 117.3717128952436 -0.762224509490629 58.63551421919814 H 0.0 **** 0.06
25441 C 83.34347362898465 171.58316533295778 162.9171361151118 C 0.0 **** -0.24
25442 H 83.05733700586687 170.6156335752633 163.33105553731772 H 0.0 **** 0.06
25443 H 84.02005561645528 171.4331724040095 162.0759488184897 H 0.0 **** 0.06
25444 H 83.84438884888284 172.17219315322302 163.68634046412467 H 0.0 **** 0.06
25445 H 82.45185961055991 172.11038886711856 162.57808313937508 H 0.0 **** 0.06
25446 C 140.624593287386 28.559923435641196 110.3651288427896 C 0.0 **** -0.24
25447 H 139.75438532140709 28.636055459687 109.71346317609863 H 0.0 **** 0.06
25448 H 140.69108850951568 27.548646908181524 110.765337904381 H 0.0 **** 0.06
25449 H 140.52558807885254 29.269904941172356 111.1867451651438 H 0.0 **** 0.06
25450 H 141.52568153371902 28.78624608377943 109.79596880259328 H 0.0 **** 0.06
25451 C 182.41247053529068 39.94521202119893 64.76669201738753 C 0.0 **** -0.24
25452 H 182.3374148624035 38.875053940934436 64.96063652588347 H 0.0 **** 0.06
25453 H 181.69104153678296 40.22573532602422 63.99802496045049 H 0.0 **** 0.06
25454 H 183.41955389435515 40.18242943019146 64.42445359583851 H 0.0 **** 0.06
25455 H 182.1998586807274 40.4949430754408 65.68279794984431 H 0.0 **** 0.06
25456 C 47.08229413258118 153.18999156341948 158.41066599675787 C 0.0 **** -0.24
25457 H 46.107406563088986 152.73129196372736 158.57829372251345 H 0.0 **** 0.06
25458 H 47.41728308183248 152.97197711050126 157.3971803192576 H 0.0 **** 0.06
25459 H 47.80091261581505 152.7870896064988 159.12512148434473 H 0.0 **** 0.06
25460 H 47.003866520037306 154.2692569396819 158.54373929808077 H 0.0 **** 0.06
25461 C 42.90114756116901 125.86048223320353 181.73723182058077 C 0.0 **** -0.24
25462 H 43.82130746522773 125.44633213554431 182.14793799749071 H 0.0 **** 0.06
25463 H 43.03978306588658 126.92241514040103 181.53355354670296 H 0.0 **** 0.06
25464 H 42.092251017800834 125.73026038624079 182.45639090968413 H 0.0 **** 0.06
25465 H 42.650120289482516 125.34239597948346 180.81171624663264 H 0.0 **** 0.06
25466 C 208.907235912192 4.181471943884105 58.40341673671706 C 0.0 **** -0.24
25467 H 208.4452993098477 3.2077399905782045 58.564605400504334 H 0.0 **** 0.06
25468 H 209.17394672053922 4.620167942022874 59.36521573432675 H 0.0 **** 0.06
25469 H 208.20400868780314 4.836042839577061 57.88776320632982 H 0.0 **** 0.06
25470 H 209.80458938683128 4.062434799968258 57.796819651148326 H 0.0 **** 0.06
25471 C 138.4767601961724 85.00422119274616 14.779729338068393 C 0.0 **** -0.24
25472 H 137.49120635727962 85.10972037454046 14.324614281273085 H 0.0 **** 0.06
25473 H 139.11205490467438 85.83228030158354 14.464527987697778 H 0.0 **** 0.06
25474 H 138.9231351925289 84.06083655242846 14.46305293613392 H 0.0 **** 0.06
25475 H 138.3785313427211 85.01299385028408 15.865164857107942 H 0.0 **** 0.06
25476 C 86.45967268403096 167.24261542559327 164.09493458467205 C 0.0 **** -0.24
25477 H 86.63125690058557 166.37151234564493 163.46291843719087 H 0.0 **** 0.06
25478 H 85.3884921082598 167.37270781411223 164.24977735985186 H 0.0 **** 0.06
25479 H 86.8673570388943 168.12920733958407 163.6106367843824 H 0.0 **** 0.06
25480 H 86.95070972607324 167.09503945825264 165.05691124609987 H 0.0 **** 0.06
25481 C 78.13702008070798 20.508146517385853 2.453479210190949 C 0.0 **** -0.24
25482 H 78.70307961335443 19.63817879218425 2.119380553202433 H 0.0 **** 0.06
25483 H 77.09198625410828 20.228991667267167 2.593042927840287 H 0.0 **** 0.06
25484 H 78.20532582531148 21.29533654017615 1.7032843599109526 H 0.0 **** 0.06
25485 H 78.54676366766473 20.86764723857192 3.3967154157226673 H 0.0 **** 0.06
25486 C 138.39188285476683 143.50005081214442 106.63370318995804 C 0.0 **** -0.24
25487 H 138.14868903785907 142.70752355692025 107.34193370764932 H 0.0 **** 0.06
25488 H 137.8454569522233 143.3368280203499 105.70429305143792 H 0.0 **** 0.06
25489 H 139.46304591498244 143.48932667772567 106.4320504459623 H 0.0 **** 0.06
25490 H 138.1117884533768 144.4646616284416 107.05719018959438 H 0.0 **** 0.06
25491 C 182.56069270975678 161.40422734977534 61.93550854712635 C 0.0 **** -0.24
25492 H 183.42201405811556 160.73602785737927 61.93584668259916 H 0.0 **** 0.06
25493 H 182.72585574841895 162.21114360882052 62.65078506050605 H 0.0 **** 0.06
25494 H 181.6671281637344 160.84651712702478 62.215884805581084 H 0.0 **** 0.06
25495 H 182.4278068320691 161.82475721120355 60.93761017897873 H 0.0 **** 0.06
25496 C 191.28446796023985 137.2104264520613 164.21260939790085 C 0.0 **** -0.24
25497 H 190.94043477918427 137.87934267790274 165.0014607081351 H 0.0 **** 0.06
25498 H 192.3737273376467 137.22440733091474 164.1738449579778 H 0.0 **** 0.06
25499 H 190.88095108081993 137.54049505228028 163.25474301693916 H 0.0 **** 0.06
25500 H 190.94160429912296 136.19664433966688 164.42042056649052 H 0.0 **** 0.06
25501 C 183.80364259702583 22.2568732807714 90.69436859282803 C 0.0 **** -0.24
25502 H 184.25282927434432 22.59358595813572 91.62834184053179 H 0.0 **** 0.06
25503 H 183.9099821152863 23.035295446774853 89.93834413079742 H 0.0 **** 0.06
25504 H 182.74641842971744 22.04650111478395 90.85395160374549 H 0.0 **** 0.06
25505 H 184.30677595086064 21.3503589968995 90.35590317179322 H 0.0 **** 0.06
25506 C 165.98819261279647 43.31905028010608 213.64072820007573 C 0.0 **** -0.24
25507 H 165.50974305406743 43.999306515011384 212.93712562202552 H 0.0 **** 0.06
25508 H 166.9357893249795 42.975149712885255 213.22587037964456 H 0.0 **** 0.06
25509 H 165.33771427552273 42.46265570139123 213.81872931497756 H 0.0 **** 0.06
25510 H 166.17041085386154 43.837841006375356 214.58199693723162 H 0.0 **** 0.06
25511 C 97.8478943576364 68.89998564474013 124.97005566218087 C 0.0 **** -0.24
25512 H 97.40553877203713 68.2213623732979 124.24068461155389 H 0.0 **** 0.06
25513 H 97.13436137252874 69.68776309743959 125.21257268881959 H 0.0 **** 0.06
25514 H 98.75080202535635 69.34343881310258 124.55080375665136 H 0.0 **** 0.06
25515 H 98.1006164392888 68.34729600908989 125.8744509510667 H 0.0 **** 0.06
25516 C 120.67318335143442 189.5973634719527 8.517088430841113 C 0.0 **** -0.24
25517 H 119.64371973150405 189.9345845186511 8.39268677252278 H 0.0 **** 0.06
25518 H 121.02178917632052 189.85498863113756 9.516724052973188 H 0.0 **** 0.06
25519 H 121.30603167490516 190.0821477605367 7.773881645532697 H 0.0 **** 0.06
25520 H 120.71936436532802 188.51640038184794 8.383091205656171 H 0.0 **** 0.06
25521 C 36.32364120413905 8.858679483516823 198.40731993163308 C 0.0 **** -0.24
25522 H 35.44397733174698 8.713970221313517 199.03507454129337 H 0.0 **** 0.06
25523 H 36.6800866137539 9.88342415501019 198.5130515200895 H 0.0 **** 0.06
25524 H 36.06149764804307 8.671000866575724 197.36581302374685 H 0.0 **** 0.06
25525 H 37.10762723436301 8.167327296880188 198.71565284878008 H 0.0 **** 0.06
25526 C 69.02290948307466 204.1731365923052 77.11665402438786 C 0.0 **** -0.24
25527 H 69.46202964163857 203.29067924046603 76.65123738702363 H 0.0 **** 0.06
25528 H 67.95778356041141 204.0057666934085 77.27908319605365 H 0.0 **** 0.06
25529 H 69.15942765785613 205.03406523559138 76.46239888141912 H 0.0 **** 0.06
25530 H 69.51173609891785 204.3611737381507 78.07254717063745 H 0.0 **** 0.06
25531 C 13.729416939934922 199.4900801394846 21.922679474951877 C 0.0 **** -0.24
25532 H 13.621197939103453 199.3924238964815 23.00296695777628 H 0.0 **** 0.06
25533 H 14.788925267860009 199.5470344989426 21.668336240013147 H 0.0 **** 0.06
25534 H 13.226908707797193 200.39767485413532 21.58761462427509 H 0.0 **** 0.06
25535 H 13.283727265227213 198.62500955453618 21.432150449156822 H 0.0 **** 0.06
25536 C 178.50188437448637 178.363381596845 43.479550563246846 C 0.0 **** -0.24
25537 H 179.5437093489602 178.1044868255371 43.28782843377664 H 0.0 **** 0.06
25538 H 178.29024051377476 178.25255471309214 44.54297682404561 H 0.0 **** 0.06
25539 H 177.85298824809854 177.70062078918843 42.90774285802593 H 0.0 **** 0.06
25540 H 178.32367724002555 179.39497088383527 43.17772299865476 H 0.0 **** 0.06
25541 C 193.90490856818482 158.70343950139707 192.14364288563698 C 0.0 **** -0.24
25542 H 194.8991792206439 158.7032008494504 192.58910885618735 H 0.0 **** 0.06
25543 H 193.2123739239732 159.22989497058632 192.80116517348168 H 0.0 **** 0.06
25544 H 193.56677075844027 157.67632772778137 192.00729275130644 H 0.0 **** 0.06
25545 H 193.94042423193906 159.2051407097983 191.1762532620945 H 0.0 **** 0.06
25546 C 95.58768276485876 45.44418925263025 77.83092993801209 C 0.0 **** -0.24
25547 H 95.80667461991317 45.295118295001515 76.77393535805602 H 0.0 **** 0.06
25548 H 96.50002252905693 45.31438792275483 78.41293415049823 H 0.0 **** 0.06
25549 H 94.84373754508596 44.71654615129955 78.15385895260188 H 0.0 **** 0.06
25550 H 95.19940315308656 46.45259640367367 77.98220167561173 H 0.0 **** 0.06
25551 C 61.75505674081438 11.483482178781202 134.95698743013781 C 0.0 **** -0.24
25552 H 61.60344624047718 12.20062239973322 135.763534571423 H 0.0 **** 0.06
25553 H 61.120415495247244 10.612974620393885 135.1208538545735 H 0.0 **** 0.06
25554 H 62.799936704844356 11.172444772739738 134.93958795735614 H 0.0 **** 0.06
25555 H 61.498396072793696 11.948052690384657 134.00502279051187 H 0.0 **** 0.06
25556 C 57.825301213676596 117.6754401172965 165.20625689421053 C 0.0 **** -0.24
25557 H 57.32435578010973 117.27574896442955 164.32520991934484 H 0.0 **** 0.06
25558 H 57.915596716336324 116.89309997624478 165.96019971144233 H 0.0 **** 0.06
25559 H 57.24485250149479 118.50430380712557 165.60967279469463 H 0.0 **** 0.06
25560 H 58.818720003099486 118.02975814116043 164.92880778997392 H 0.0 **** 0.06
25561 C 96.1914216264007 60.5206977527523 150.0742330088426 C 0.0 **** -0.24
25562 H 95.57101493975428 61.35848785013579 150.39295928216853 H 0.0 **** 0.06
25563 H 97.05348292411013 60.896615868943684 149.5227422708353 H 0.0 **** 0.06
25564 H 95.6095040076038 59.86024549647493 149.4329368178374 H 0.0 **** 0.06
25565 H 96.53387724671815 59.96929760369771 150.9504728033868 H 0.0 **** 0.06
25566 C 68.56629857181696 190.5579804589728 124.78785863637165 C 0.0 **** -0.24
25567 H 69.03848802413978 191.14486237465462 124.0001043141117 H 0.0 **** 0.06
25568 H 67.52808565404325 190.87290678071292 124.90288699410848 H 0.0 **** 0.06
25569 H 69.09961330580981 190.71229695039338 125.72544646596214 H 0.0 **** 0.06
25570 H 68.59761582717016 189.50087029589938 124.52123813111388 H 0.0 **** 0.06
25571 C 112.11677828740908 1.641489094396519 155.66791314918288 C 0.0 **** -0.24
25572 H 112.06355915063672 1.5718756279245838 154.5816756904547 H 0.0 **** 0.06
25573 H 112.60880480619828 2.57255965409459 155.94829974979285 H 0.0 **** 0.06
25574 H 112.684701056122 0.7977303558409403 156.05864200675188 H 0.0 **** 0.06
25575 H 111.10799440279938 1.6247398842593554 156.08209631881135 H 0.0 **** 0.06
25576 C 117.53527568929712 70.55653885015668 119.26622127272127 C 0.0 **** -0.24
25577 H 116.81838620364192 70.80451304167433 118.48298732587746 H 0.0 **** 0.06
25578 H 117.96706533882355 71.47409764607643 119.66669312186754 H 0.0 **** 0.06
25579 H 118.32639903173066 69.93288040427556 118.85051088220952 H 0.0 **** 0.06
25580 H 117.02702515059497 70.01477264759647 120.06452442662363 H 0.0 **** 0.06
25581 C 15.185594764987343 76.38138433399767 189.51226693339507 C 0.0 **** -0.24
25582 H 15.150594229018651 75.48218280606407 188.89694285898156 H 0.0 **** 0.06
25583 H 14.176266828079378 76.77048959914357 189.6436150705567 H 0.0 **** 0.06
25584 H 15.804355595878917 77.13237907098012 189.020922778245 H 0.0 **** 0.06
25585 H 15.612043380823621 76.13956875046328 190.48549348878382 H 0.0 **** 0.06
25586 C 26.622371706328693 145.93765256931084 17.08391811097168 C 0.0 **** -0.24
25587 H 27.594193260449913 145.48523360629105 17.286007489691585 H 0.0 **** 0.06
25588 H 26.757965280865562 146.98563665513944 16.8178694992573 H 0.0 **** 0.06
25589 H 25.997675930663803 145.86586361865693 17.97445203899835 H 0.0 **** 0.06
25590 H 26.141674646851754 145.41144200315472 16.259339485092866 H 0.0 **** 0.06
25591 C 132.94132303558354 184.61346344444752 206.68237423426146 C 0.0 **** -0.24
25592 H 133.9851407748402 184.59184523395453 206.99589348484574 H 0.0 **** 0.06
25593 H 132.88172855622366 184.92720303008014 205.63987861383904 H 0.0 **** 0.06
25594 H 132.389368610289 185.31684239899656 207.30673752144588 H 0.0 **** 0.06
25595 H 132.51021927904935 183.61804934099655 206.78889394820501 H 0.0 **** 0.06
25596 C 152.62121345547735 144.06038852090484 141.44344210581437 C 0.0 **** -0.24
25597 H 152.36671611893394 144.97619791949285 140.91002914556577 H 0.0 **** 0.06
25598 H 151.8876708928089 143.2884436729173 141.20868773658833 H 0.0 **** 0.06
25599 H 152.61655568300694 144.25270141745756 142.5157052119515 H 0.0 **** 0.06
25600 H 153.61236047017633 143.72579277502916 141.1383004870596 H 0.0 **** 0.06
25601 C 42.893008889730424 198.7241247058511 178.67666602894343 C 0.0 **** -0.24
25602 H 42.82772098937602 199.72695702068089 178.25487583151306 H 0.0 **** 0.06
25603 H 42.5873012126018 198.7500190942324 179.72290760927547 H 0.0 **** 0.06
25604 H 43.92081276403229 198.36701947623524 178.60651476468735 H 0.0 **** 0.06
25605 H 42.236830427056475 198.05321678007567 178.12267279041686 H 0.0 **** 0.06
25606 C 35.72713712592221 216.23832225189594 62.40384128454531 C 0.0 **** -0.24
25607 H 36.402736174678864 216.52655773509466 63.20951887337861 H 0.0 **** 0.06
25608 H 36.29925747766694 216.08915118504817 61.487926201748394 H 0.0 **** 0.06
25609 H 34.99074909385553 217.02688121484422 62.247490485930484 H 0.0 **** 0.06
25610 H 35.218424858265564 215.3121124529436 62.67005241103709 H 0.0 **** 0.06
25611 C 107.4569687551306 32.79054389455854 105.34637924090724 C 0.0 **** -0.24
25612 H 108.03322228875662 33.710255383760455 105.4470608072133 H 0.0 **** 0.06
25613 H 106.50753679091387 33.00859077741316 104.85679201851464 H 0.0 **** 0.06
25614 H 107.26860189051307 32.370299770764206 106.33434277178846 H 0.0 **** 0.06
25615 H 108.01912793354855 32.073818686758614 104.74729729325053 H 0.0 **** 0.06
25616 C 27.838445701648737 182.5815788804167 48.655949346228624 C 0.0 **** -0.24
25617 H 27.374616358521067 182.27927099913603 47.71744713063782 H 0.0 **** 0.06
25618 H 27.87520764223136 183.6695312955907 48.70940245099206 H 0.0 **** 0.06
25619 H 28.849989887018964 182.1795983766679 48.70761327702809 H 0.0 **** 0.06
25620 H 27.25210349666753 182.19570581613453 49.490959504655336 H 0.0 **** 0.06
25621 C 206.79683649348908 177.2168073419015 186.62419648996786 C 0.0 **** -0.24
25622 H 206.2376948350748 178.15092259784154 186.56340632030708 H 0.0 **** 0.06
25623 H 206.56327690957653 176.59630392242443 185.7578705711511 H 0.0 **** 0.06
25624 H 206.52224170732325 176.68809875501734 187.53629026201125 H 0.0 **** 0.06
25625 H 207.86533337677255 177.43445924089096 186.63820425423233 H 0.0 **** 0.06
25626 C 41.505558496292394 89.30589552801935 111.55084631021639 C 0.0 **** -0.24
25627 H 42.05859429795527 90.20643565358633 111.28515286032093 H 0.0 **** 0.06
25628 H 40.50052315446652 89.35956270342392 111.12998770397168 H 0.0 **** 0.06
25629 H 41.44179234266568 89.22538565152094 112.63587634188302 H 0.0 **** 0.06
25630 H 42.02050940443388 88.43211947533189 111.15121508890105 H 0.0 **** 0.06
25631 C 197.20958102950277 69.45584085658103 145.31022696950464 C 0.0 **** -0.24
25632 H 196.987514322761 70.33683800714363 145.91125318472638 H 0.0 **** 0.06
25633 H 197.5293677358883 68.64306234193407 145.96206182544796 H 0.0 **** 0.06
25634 H 198.00566706334416 69.68956981282065 144.60262047213405 H 0.0 **** 0.06
25635 H 196.31577499601764 69.15389326442573 144.7649723957103 H 0.0 **** 0.06
25636 C 149.78497015355566 184.35503865377055 10.605593544664941 C 0.0 **** -0.24
25637 H 148.85397523478326 184.8020538908483 10.953879306478086 H 0.0 **** 0.06
25638 H 150.3837910347661 185.11075548705125 10.09852872152834 H 0.0 **** 0.06
25639 H 149.56125008283533 183.54324879507465 9.912830449003962 H 0.0 **** 0.06
25640 H 150.3400728766589 183.96178387166515 11.457296416113309 H 0.0 **** 0.06
25641 C 136.77222289620818 209.5098788177182 122.03038178576863 C 0.0 **** -0.24
25642 H 137.4225829189408 210.11080148021847 121.39412323398172 H 0.0 **** 0.06
25643 H 136.51421819549847 208.58467213589688 121.5150631392949 H 0.0 **** 0.06
25644 H 135.86203411133658 210.06960250629754 122.24969191844978 H 0.0 **** 0.06
25645 H 137.28897984966545 209.276574799221 122.96113879871736 H 0.0 **** 0.06
25646 C 181.5414187526763 138.25215898817493 52.5978547152493 C 0.0 **** -0.24
25647 H 181.6080797026946 137.16505769473906 52.65141075262642 H 0.0 **** 0.06
25648 H 180.59281306187455 138.57846503890192 53.02409964458428 H 0.0 **** 0.06
25649 H 181.60027293433882 138.56861961921305 51.55651135720234 H 0.0 **** 0.06
25650 H 182.3646565242889 138.6941588402551 53.15867093316825 H 0.0 **** 0.06
25651 C 47.04467922439372 11.968419603925781 128.35236140439025 C 0.0 **** -0.24
25652 H 47.10814071583985 11.748346729229581 129.417727864715 H 0.0 **** 0.06
25653 H 46.96228354142903 13.04606878675014 128.20883671226983 H 0.0 **** 0.06
25654 H 46.165909971054305 11.478418913637142 127.93193652839778 H 0.0 **** 0.06
25655 H 47.93963792545975 11.601318487925198 127.85045322294218 H 0.0 **** 0.06
25656 C 78.96089785985352 46.75844239535941 152.1717013409882 C 0.0 **** -0.24
25657 H 78.53413735941918 45.836003851849796 152.56532138984693 H 0.0 **** 0.06
25658 H 79.05403835441506 47.48742867207204 152.97729553773655 H 0.0 **** 0.06
25659 H 78.30834702063292 47.15723553065635 151.39483933347293 H 0.0 **** 0.06
25660 H 79.94518779734041 46.553146465800324 151.75168583557422 H 0.0 **** 0.06
25661 C 152.04993019666028 92.9335709620854 1.203096426608795 C 0.0 **** -0.24
25662 H 152.32610647606901 92.37538727218727 2.097468139933035 H 0.0 **** 0.06
25663 H 151.30421172851896 93.68547603757717 1.4603353279463462 H 0.0 **** 0.06
25664 H 151.6361773482971 92.24912963055097 0.46172351041550286 H 0.0 **** 0.06
25665 H 152.9338140798415 93.42268536172757 0.7925838968870664 H 0.0 **** 0.06
25666 C 212.28568512531984 97.16886087403024 137.1515814456822 C 0.0 **** -0.24
25667 H 212.61852317608938 97.64167858581457 136.22749195702983 H 0.0 **** 0.06
25668 H 212.68742715173175 96.1561729463257 137.20631418649162 H 0.0 **** 0.06
25669 H 211.1969317450463 97.12954109101905 137.1679262590211 H 0.0 **** 0.06
25670 H 212.6421420871322 97.74748136730709 138.00391465501986 H 0.0 **** 0.06
25671 C 214.55376797212818 198.7086274077982 32.9906350171413 C 0.0 **** -0.24
25672 H 214.34760819828116 199.48752337505334 32.25649037383687 H 0.0 **** 0.06
25673 H 215.08867104126202 199.14072675675527 33.837390014244875 H 0.0 **** 0.06
25674 H 215.1640969285886 197.93115824327617 32.532440321144406 H 0.0 **** 0.06
25675 H 213.6142657645941 198.27749187771957 33.33590286601412 H 0.0 **** 0.06
25676 C 187.26875767687264 39.72389115752166 145.9727715462554 C 0.0 **** -0.24
25677 H 187.48111717577908 40.29887499983418 145.07123332340308 H 0.0 **** 0.06
25678 H 187.48668756162763 38.671582026087904 145.79237702910154 H 0.0 **** 0.06
25679 H 186.2171574255159 39.8379048160742 146.23644357446733 H 0.0 **** 0.06
25680 H 187.8895303598141 40.08918657701258 146.79015190390083 H 0.0 **** 0.06
25681 C 142.10384042392076 106.78725803091801 107.26477326933814 C 0.0 **** -0.24
25682 H 142.76419145714044 106.77040184102593 108.13229072307847 H 0.0 **** 0.06
25683 H 141.69516449169276 107.78994145511469 107.13950926989033 H 0.0 **** 0.06
25684 H 141.2902903890951 106.07729829619625 107.41404367504948 H 0.0 **** 0.06
25685 H 142.66912151267655 106.5108368828616 106.37429430279825 H 0.0 **** 0.06
25686 C 175.21608742604002 185.6084008775936 92.24757397447722 C 0.0 **** -0.24
25687 H 176.06512036214752 185.1893955890269 92.78707538109138 H 0.0 **** 0.06
25688 H 175.0332816550736 185.02146649110148 91.34605788713155 H 0.0 **** 0.06
25689 H 175.4343343409488 186.6400485621779 91.97059656586201 H 0.0 **** 0.06
25690 H 174.33185480113517 185.58208337972977 92.88381463529144 H 0.0 **** 0.06
25691 C 159.18536557260128 56.325904490987966 173.99783006823833 C 0.0 **** -0.24
25692 H 158.7450757802044 56.98833453910504 174.74183573669853 H 0.0 **** 0.06
25693 H 160.2079972784989 56.08192692740772 174.28914864680223 H 0.0 **** 0.06
25694 H 159.19210108146032 56.82283645222486 173.0276845138951 H 0.0 **** 0.06
25695 H 158.59753972607484 55.409877958015045 173.93250537603592 H 0.0 **** 0.06
25696 C 147.31432269216253 0.4529355917433122 198.60300016974702 C 0.0 **** -0.24
25697 H 146.75944734383347 1.1731064518505434 199.20452109298836 H 0.0 **** 0.06
25698 H 147.93310000447332 -0.16488851948756178 199.25533074263774 H 0.0 **** 0.06
25699 H 147.95113080181528 0.9846171617158461 197.8957277455117 H 0.0 **** 0.06
25700 H 146.61531682049076 -0.18034086972096475 198.05765822795198 H 0.0 **** 0.06
25701 C 162.09575785066895 132.33899994913003 134.2280388756509 C 0.0 **** -0.24
25702 H 162.66201904715376 132.89960528460517 133.48328920164516 H 0.0 **** 0.06
25703 H 161.89764218179786 132.97809996697458 135.08903335936344 H 0.0 **** 0.06
25704 H 162.6734116781473 131.47123959726446 134.5455812416514 H 0.0 **** 0.06
25705 H 161.15213267039587 132.0091003425863 133.79455082543132 H 0.0 **** 0.06
25706 C 45.91389481249263 204.21952257251823 166.05656487866472 C 0.0 **** -0.24
25707 H 44.86737968602206 203.97148413124336 166.23377988568132 H 0.0 **** 0.06
25708 H 45.989757088139214 204.8861828179078 165.1971492745484 H 0.0 **** 0.06
25709 H 46.47409985414296 203.30605658366505 165.8584252180158 H 0.0 **** 0.06
25710 H 46.32395599370456 204.7134581851184 166.9370633528399 H 0.0 **** 0.06
25711 C 185.7346393008055 164.03275849133104 170.3808678731645 C 0.0 **** -0.24
25712 H 185.37817112270858 163.98705915960352 169.3511367580179 H 0.0 **** 0.06
25713 H 186.15045601905587 165.02144185686973 170.5775397133643 H 0.0 **** 0.06
25714 H 186.5065762765405 163.2773154653387 170.53087885033366 H 0.0 **** 0.06
25715 H 184.90473073044458 163.84443687712894 171.06052575622238 H 0.0 **** 0.06
25716 C 127.56628784699429 163.7834246908027 37.5701466767801 C 0.0 **** -0.24
25717 H 127.49399035952898 163.36321538584605 38.57327296462324 H 0.0 **** 0.06
25718 H 126.72273375445072 163.4392019664183 36.97096276307869 H 0.0 **** 0.06
25719 H 128.4977864667008 163.45843055728824 37.1076553188222 H 0.0 **** 0.06
25720 H 127.54970313790052 164.8715204506894 37.62928799064855 H 0.0 **** 0.06
25721 C 80.5176339690961 66.84864826817712 103.3435282823876 C 0.0 **** -0.24
25722 H 81.4051427327226 67.4548162039275 103.16116937998954 H 0.0 **** 0.06
25723 H 79.70562270762719 67.1894974696566 102.70069962632259 H 0.0 **** 0.06
25724 H 80.21967762424538 66.94735076410589 104.38756897984932 H 0.0 **** 0.06
25725 H 80.74079377460606 65.80394300200858 103.1267917001288 H 0.0 **** 0.06
25726 C 78.73015678688841 42.38552350290567 168.27239499358035 C 0.0 **** -0.24
25727 H 77.86451474635459 42.847240538555866 168.74740486102507 H 0.0 **** 0.06
25728 H 78.79345251459915 42.71480658024653 167.2345431412594 H 0.0 **** 0.06
25729 H 78.62671840457529 41.30146617199462 168.30435310149187 H 0.0 **** 0.06
25730 H 79.63523170523575 42.68044300029558 168.80344679874992 H 0.0 **** 0.06
25731 C 179.53214334990628 191.49012064990436 184.85401524553606 C 0.0 **** -0.24
25732 H 179.02897924598904 192.40193412787363 185.17657099475957 H 0.0 **** 0.06
25733 H 180.40948316457116 191.7503417205143 184.26142348960747 H 0.0 **** 0.06
25734 H 178.84958267494716 190.89237530013136 184.25084981238314 H 0.0 **** 0.06
25735 H 179.84093425656982 190.91705965133434 185.7277883223445 H 0.0 **** 0.06
25736 C 215.0105879774075 38.0287935972688 5.104651099065677 C 0.0 **** -0.24
25737 H 213.93174171107228 38.1737598574901 5.160037485503295 H 0.0 **** 0.06
25738 H 215.51637759277264 38.92551156457685 5.466196299260531 H 0.0 **** 0.06
25739 H 215.2996163315151 37.84029898192587 4.070891687601545 H 0.0 **** 0.06
25740 H 215.29519218065775 37.176904920547344 5.722466825509514 H 0.0 **** 0.06
25741 C 16.7718946276583 25.809932562113985 103.07436125300715 C 0.0 **** -0.24
25742 H 16.16088103908146 26.56797844505006 103.56336631796962 H 0.0 **** 0.06
25743 H 16.686797496863306 24.868273455133306 103.61763904417616 H 0.0 **** 0.06
25744 H 17.81439335512414 26.132242750564657 103.06759908619792 H 0.0 **** 0.06
25745 H 16.428381547466074 25.67170041583151 102.04956090125263 H 0.0 **** 0.06
25746 C 188.58232508904555 44.601638832195874 66.2587927775051 C 0.0 **** -0.24
25747 H 189.15753990713793 45.28966692813796 66.87952332583097 H 0.0 **** 0.06
25748 H 188.47384698402544 43.64880134098803 66.77784322718355 H 0.0 **** 0.06
25749 H 189.10235700607805 44.44333678366576 65.31372324957334 H 0.0 **** 0.06
25750 H 187.59730577414533 45.02465746954573 66.0654710441068 H 0.0 **** 0.06
25751 C 137.23674190366103 21.153829477705827 72.3594711965547 C 0.0 **** -0.24
25752 H 137.91336753916204 20.341024887745405 72.62464962005265 H 0.0 **** 0.06
25753 H 136.78854915566427 20.949949571970137 71.3867958196812 H 0.0 **** 0.06
25754 H 137.793242366254 22.089553676322794 72.31488889467926 H 0.0 **** 0.06
25755 H 136.4520096995788 21.2325966433348 73.11262274673555 H 0.0 **** 0.06
25756 C 185.65028375827242 144.46426818759164 99.81742790198037 C 0.0 **** -0.24
25757 H 186.30321184407097 144.83735960111443 99.02857630411755 H 0.0 **** 0.06
25758 H 184.73857065940535 145.0612465116899 99.84692788284745 H 0.0 **** 0.06
25759 H 186.16317115461777 144.53525397821278 100.77700316530819 H 0.0 **** 0.06
25760 H 185.39753942273578 143.42314176223312 99.61759247444279 H 0.0 **** 0.06
25761 C 25.619528897094142 19.11216836881806 32.427829172942765 C 0.0 **** -0.24
25762 H 26.703050094512122 19.113204204389433 32.31129647401123 H 0.0 **** 0.06
25763 H 25.363172729504328 19.44264144720549 33.43498567352978 H 0.0 **** 0.06
25764 H 25.237982854007953 18.103893177602686 32.26778890465404 H 0.0 **** 0.06
25765 H 25.17411473330661 19.789320064798034 31.698921811050198 H 0.0 **** 0.06
25766 C 158.39502923582722 182.30157065202326 143.88921038974348 C 0.0 **** -0.24
25767 H 159.35506396328327 182.81791093177253 143.8732047190005 H 0.0 **** 0.06
25768 H 158.26484426449952 181.80528255113987 144.85112521865057 H 0.0 **** 0.06
25769 H 158.36722520721935 181.56048993566105 143.09105976103245 H 0.0 **** 0.06
25770 H 157.59150064600993 183.0242717068383 143.7415142299277 H 0.0 **** 0.06
25771 C 58.28032154261999 186.71521737675133 165.39893122419332 C 0.0 **** -0.24
25772 H 57.63232850906974 187.4394793084793 165.89272351089792 H 0.0 **** 0.06
25773 H 59.30816555777861 186.86077218349388 165.73198470847427 H 0.0 **** 0.06
25774 H 58.22403217340059 186.85410185343537 164.31980021884485 H 0.0 **** 0.06
25775 H 57.95476705774027 185.70636863370083 165.6526330729885 H 0.0 **** 0.06
25776 C 174.62025158239396 149.5430935169112 101.74563752601146 C 0.0 **** -0.24
25777 H 173.7873828911087 150.00302113053937 101.21391817614555 H 0.0 **** 0.06
25778 H 174.34325566859894 148.53332074641565 102.05011308959386 H 0.0 **** 0.06
25779 H 174.85791378245727 150.13630907711655 102.62862683155292 H 0.0 **** 0.06
25780 H 175.4905243052641 149.50045807009712 101.09206831515543 H 0.0 **** 0.06
25781 C 111.80084988101616 119.047769929244 214.9726765300387 C 0.0 **** -0.24
25782 H 111.26687197043056 119.23240214258323 214.04013340166733 H 0.0 **** 0.06
25783 H 111.41224777074949 119.70708876665316 215.7496251953599 H 0.0 **** 0.06
25784 H 112.86305158893235 119.24284175712916 214.8277191660598 H 0.0 **** 0.06
25785 H 111.65918294612295 118.00980239236992 215.27238971722778 H 0.0 **** 0.06
25786 C 198.74982190604163 93.45828144598715 98.48692717177452 C 0.0 **** -0.24
25787 H 199.39622465759385 93.65110893928744 97.62980862462892 H 0.0 **** 0.06
25788 H 198.8590705455893 94.26569447739229 99.21200861093622 H 0.0 **** 0.06
25789 H 199.03431724859217 92.51304636075525 98.949549237677 H 0.0 **** 0.06
25790 H 197.71329172221934 93.403447504692 98.15539807774276 H 0.0 **** 0.06
25791 C 213.1178801035415 201.64470221154232 166.5400886234064 C 0.0 **** -0.24
25792 H 213.78842341506908 201.5585208830444 167.39520942526713 H 0.0 **** 0.06
25793 H 213.7052837718438 201.73621841447374 165.62619866264407 H 0.0 **** 0.06
25794 H 212.48937173620658 202.52785432935616 166.6586327984034 H 0.0 **** 0.06
25795 H 212.48867654500114 200.75650163163587 166.48167843385949 H 0.0 **** 0.06
25796 C 142.24975752542292 212.55692814565842 60.66904719462889 C 0.0 **** -0.24
25797 H 141.3500786476598 213.07287926244442 60.333275690192465 H 0.0 **** 0.06
25798 H 142.31466350828157 211.58479957763294 60.180623820677454 H 0.0 **** 0.06
25799 H 142.20656971933363 212.4181285300154 61.74946360616511 H 0.0 **** 0.06
25800 H 143.12715909099768 213.15144828768928 60.413517473747106 H 0.0 **** 0.06
25801 C 44.12545096911428 83.77083374177596 124.0071734256292 C 0.0 **** -0.24
25802 H 44.46859429501072 84.52544552462439 123.29937977442638 H 0.0 **** 0.06
25803 H 43.05140547579539 83.87991369163365 124.16154635016817 H 0.0 **** 0.06
25804 H 44.64375640017424 83.90018383780273 124.95693453130433 H 0.0 **** 0.06
25805 H 44.336820978763626 82.77795735096703 123.61014908334228 H 0.0 **** 0.06
25806 C 37.054627807327506 24.777024217846247 214.6152756697999 C 0.0 **** -0.24
25807 H 37.632923305002336 25.6916373504056 214.48147998844166 H 0.0 **** 0.06
25808 H 36.12836266661694 24.847176696543627 214.0447498944493 H 0.0 **** 0.06
25809 H 36.8228949010111 24.64563567045218 215.67154979248943 H 0.0 **** 0.06
25810 H 37.636416386255746 23.925803423219534 214.26132320284754 H 0.0 **** 0.06
25811 C 65.07937854204323 213.06046153006528 205.03048834703333 C 0.0 **** -0.24
25812 H 65.6525873046096 212.2496610154289 205.4794263902204 H 0.0 **** 0.06
25813 H 64.02396832130012 212.786572035399 205.00313924061518 H 0.0 **** 0.06
25814 H 65.43559332763044 213.23850005346304 204.01568814378015 H 0.0 **** 0.06
25815 H 65.20448800000372 213.96620041463078 205.62306898907502 H 0.0 **** 0.06
25816 C 39.259095219991195 85.28934499520608 79.8757261803756 C 0.0 **** -0.24
25817 H 39.903401793063125 86.01944788394763 80.3651063405256 H 0.0 **** 0.06
25818 H 38.66975854120875 84.76406979370967 80.62783215151926 H 0.0 **** 0.06
25819 H 39.87271284146294 84.57336471662586 79.32922202925131 H 0.0 **** 0.06
25820 H 38.59189820079159 85.80073323277475 79.18174970555766 H 0.0 **** 0.06
25821 C 112.65675944938668 206.33015413266583 185.15789018413915 C 0.0 **** -0.24
25822 H 113.15057927017763 205.56482486597395 185.75596394283855 H 0.0 **** 0.06
25823 H 112.78643904875416 206.10245473379769 184.099052448358 H 0.0 **** 0.06
25824 H 113.09829429071156 207.30225002883498 185.3768917492576 H 0.0 **** 0.06
25825 H 111.5940451102541 206.34983944102493 185.3986220928992 H 0.0 **** 0.06
25826 C 208.55007375133323 119.62996233563956 122.90294936020022 C 0.0 **** -0.24
25827 H 209.32712661950262 119.92509964987778 122.1976026737792 H 0.0 **** 0.06
25828 H 208.983398924971 119.52768016704937 123.89835772109636 H 0.0 **** 0.06
25829 H 208.12136881751073 118.67684149207628 122.59359055392285 H 0.0 **** 0.06
25830 H 207.76934221552636 120.39123407486926 122.92256485752442 H 0.0 **** 0.06
25831 C 116.4939656722129 154.62034083331082 19.493406552092054 C 0.0 **** -0.24
25832 H 115.88595296070697 155.1164621737273 18.73690586140883 H 0.0 **** 0.06
25833 H 116.49608756832724 155.21735106159423 20.405768012182662 H 0.0 **** 0.06
25834 H 117.51393911429732 154.51249586793597 19.12663584669464 H 0.0 **** 0.06
25835 H 116.07770360236704 153.63488871342787 19.703844559532357 H 0.0 **** 0.06
25836 C 184.01537357680155 205.27440003181997 117.09978953913594 C 0.0 **** -0.24
25837 H 183.56189028471005 204.28643283099584 117.00908186617585 H 0.0 **** 0.06
25838 H 184.89836284460955 205.32750557663394 116.46183114388333 H 0.0 **** 0.06
25839 H 184.30412114441975 205.44756699876706 118.13658420725903 H 0.0 **** 0.06
25840 H 183.2963285862917 206.03296157980355 116.7909144643204 H 0.0 **** 0.06
25841 C 70.9938302683184 102.4684473019288 165.05821184673187 C 0.0 **** -0.24
25842 H 71.53950750976115 102.40936002062726 164.1165031988624 H 0.0 **** 0.06
25843 H 70.35078556494337 101.59452579705747 165.161332386198 H 0.0 **** 0.06
25844 H 70.38332440029556 103.37153767602261 165.06701539572956 H 0.0 **** 0.06
25845 H 71.70070513852853 102.50010657330448 165.8870102155922 H 0.0 **** 0.06
25846 C 212.21861000390524 93.11637263084076 65.35097418775467 C 0.0 **** -0.24
25847 H 211.64049636737087 92.6226049152718 66.13180464083771 H 0.0 **** 0.06
25848 H 211.76378309802053 92.91489656553462 64.38064226890658 H 0.0 **** 0.06
25849 H 213.23967410838333 92.73722353904357 65.35964416820993 H 0.0 **** 0.06
25850 H 212.22834055246716 94.1911353392809 65.5306838522362 H 0.0 **** 0.06
25851 C 215.9512861620875 76.63814182788975 198.19106835651692 C 0.0 **** -0.24
25852 H 215.80413912000898 76.77406574140538 197.11988650212575 H 0.0 **** 0.06
25853 H 216.9142630984436 77.05738750417218 198.48141402565292 H 0.0 **** 0.06
25854 H 215.9309160636505 75.57362469714603 198.42678533144004 H 0.0 **** 0.06
25855 H 215.1547809791951 77.14599468172956 198.7345525812038 H 0.0 **** 0.06
25856 C 185.04992318185876 142.06419655760862 61.05825219435948 C 0.0 **** -0.24
25857 H 185.91304175033284 142.54680777409982 61.51697421334674 H 0.0 **** 0.06
25858 H 184.6048388738488 141.36550329710155 61.766707432521756 H 0.0 **** 0.06
25859 H 185.36829625940626 141.52356652424396 60.16613173656087 H 0.0 **** 0.06
25860 H 184.3157634854636 142.8205276027586 60.782299279337565 H 0.0 **** 0.06
25861 C 40.06893232088146 125.93694646594179 189.17816789282836 C 0.0 **** -0.24
25862 H 39.071053572459164 125.64263058535226 189.5056344227664 H 0.0 **** 0.06
25863 H 40.595944248150744 126.41538270740244 190.00387264248417 H 0.0 **** 0.06
25864 H 39.985561351547915 126.63583671154726 188.34533065890074 H 0.0 **** 0.06
25865 H 40.61979455147795 125.05340198970345 188.85726747105633 H 0.0 **** 0.06
25866 C 206.67008786980418 153.29076324253094 70.01551852212026 C 0.0 **** -0.24
25867 H 205.88313458552153 153.9996689401869 70.2703485722584 H 0.0 **** 0.06
25868 H 207.48767742501246 153.81864043796736 69.52292726114388 H 0.0 **** 0.06
25869 H 206.27073196540442 152.53148197752517 69.34365771300884 H 0.0 **** 0.06
25870 H 207.03859317373127 152.8156115273411 70.92448321877316 H 0.0 **** 0.06
25871 C 110.72342473020969 23.184228990798246 119.92562807676326 C 0.0 **** -0.24
25872 H 111.11965447108891 23.567241032392346 120.86726385751898 H 0.0 **** 0.06
25873 H 109.96704681747353 23.87093658753288 119.54529891650036 H 0.0 **** 0.06
25874 H 110.27520326162231 22.20493420142502 120.09252134115529 H 0.0 **** 0.06
25875 H 111.53274471654889 23.095302090062845 119.20056717485785 H 0.0 **** 0.06
25876 C 82.8470413918685 129.27405897547686 101.96184234616202 C 0.0 **** -0.24
25877 H 82.41865148579551 129.1715006952848 102.95917530685351 H 0.0 **** 0.06
25878 H 82.4174023109535 128.51925013295698 101.30284612725508 H 0.0 **** 0.06
25879 H 83.92731769051439 129.13956333709558 102.01486286125414 H 0.0 **** 0.06
25880 H 82.62322615318458 130.26797899297515 101.57230428427609 H 0.0 **** 0.06
25881 C 112.71457564392212 112.8056743148677 205.79718561711294 C 0.0 **** -0.24
25882 H 112.45436800616194 113.84278565527165 205.58712567763553 H 0.0 **** 0.06
25883 H 112.15214505145575 112.4586164034198 206.66473203872482 H 0.0 **** 0.06
25884 H 113.78210408276114 112.73376339220647 206.00422662883332 H 0.0 **** 0.06
25885 H 112.46969136519066 112.18742220608544 204.93365208959554 H 0.0 **** 0.06
25886 C 184.89359500621867 216.61173139616386 209.78060626715254 C 0.0 **** -0.24
25887 H 185.43587623434598 217.46785935196 209.38028500158572 H 0.0 **** 0.06
25888 H 184.05131330502456 216.96181779149896 210.376967047674 H 0.0 **** 0.06
25889 H 185.56159053853037 216.01866190396458 210.40614579614297 H 0.0 **** 0.06
25890 H 184.52704040202332 215.9979239688879 208.95832998344477 H 0.0 **** 0.06
25891 C 193.95103017348774 92.99523030077427 44.22168500879168 C 0.0 **** -0.24
25892 H 194.19945198174545 92.94620117631956 43.16183413488956 H 0.0 **** 0.06
25893 H 194.1550382846599 92.03112026953909 44.68707051380407 H 0.0 **** 0.06
25894 H 192.89503460793003 93.23818488435927 44.33577513411434 H 0.0 **** 0.06
25895 H 194.55559781644266 93.76523402596791 44.70107875826747 H 0.0 **** 0.06
25896 C 44.604904261093694 32.013444503370366 159.92570995911666 C 0.0 **** -0.24
25897 H 43.70450076119373 32.628000013949276 159.92251562901646 H 0.0 **** 0.06
25898 H 45.105618264079894 32.098937697305175 158.96130468246054 H 0.0 **** 0.06
25899 H 44.33343819175644 30.97229730669632 160.10288738761324 H 0.0 **** 0.06
25900 H 45.274293837907635 32.35359231772611 160.7151434120534 H 0.0 **** 0.06
25901 C 89.35563621586869 164.03186982887638 172.4755371827616 C 0.0 **** -0.24
25902 H 89.20239441896166 164.0294328655933 173.55472398312168 H 0.0 **** 0.06
25903 H 89.95505376257762 163.1658907907597 172.1929065690144 H 0.0 **** 0.06
25904 H 89.87469476250317 164.94450762763785 172.1844622914872 H 0.0 **** 0.06
25905 H 88.3904607294865 163.98571043881537 171.9725543760459 H 0.0 **** 0.06
25906 C 86.49111789189816 186.5062792906878 93.22730700164418 C 0.0 **** -0.24
25907 H 87.20839626462266 186.13671008457965 93.95976277874199 H 0.0 **** 0.06
25908 H 86.223706131148 187.5357707302326 93.46765774575586 H 0.0 **** 0.06
25909 H 85.59588882051419 185.88394321249132 93.24975408350404 H 0.0 **** 0.06
25910 H 86.93438451964461 186.46868946210105 92.23283286049924 H 0.0 **** 0.06
25911 C 47.361714332866256 160.73020258299027 58.99588793954615 C 0.0 **** -0.24
25912 H 47.54212467620022 161.8042912372344 58.96043660949016 H 0.0 **** 0.06
25913 H 48.175419424059044 160.20865426512555 58.490106816373896 H 0.0 **** 0.06
25914 H 46.41946906717163 160.5023667637973 58.4978549789592 H 0.0 **** 0.06
25915 H 47.31259189641156 160.40485183222563 60.034973118696456 H 0.0 **** 0.06
25916 C 154.03874558135647 14.162110157864646 100.59638626058216 C 0.0 **** -0.24
25917 H 154.00006325307777 13.814864959574379 99.564480467348 H 0.0 **** 0.06
25918 H 153.08332912459957 13.961763949916389 101.08344884705923 H 0.0 **** 0.06
25919 H 154.23757191879542 15.233285647087968 100.61226959183324 H 0.0 **** 0.06
25920 H 154.83313961497316 13.636938897285177 101.12665355373639 H 0.0 **** 0.06
25921 C 40.16595698138468 117.03860930339705 156.331698267535 C 0.0 **** -0.24
25922 H 41.12041055737234 116.95140148880206 156.8519610133087 H 0.0 **** 0.06
25923 H 39.49310239960428 116.25165161480062 156.67269305982273 H 0.0 **** 0.06
25924 H 40.327654648116095 116.94072033033102 155.25822085750633 H 0.0 **** 0.06
25925 H 39.724482595865055 118.01271161921748 156.54578518311683 H 0.0 **** 0.06
25926 C 172.4665844405283 104.95663269512904 136.73444111184273 C 0.0 **** -0.24
25927 H 173.03177087969033 105.05852527457272 137.6599335744105 H 0.0 **** 0.06
25928 H 171.94627368680875 105.89075313068811 136.52185260133177 H 0.0 **** 0.06
25929 H 171.73893726087007 104.15152472665922 136.83939294632296 H 0.0 **** 0.06
25930 H 173.14825417135037 104.72650676593692 135.91616209074738 H 0.0 **** 0.06
25931 C 157.61808612333755 126.02771740490151 8.774231402005057 C 0.0 **** -0.24
25932 H 157.3813079255167 126.3804746917434 7.770974455836949 H 0.0 **** 0.06
25933 H 157.20802042518056 125.02700182847569 8.913125635449148 H 0.0 **** 0.06
25934 H 157.18424084475998 126.7049203208219 9.509688141140145 H 0.0 **** 0.06
25935 H 158.70050365113204 125.99749407443336 8.902110234878847 H 0.0 **** 0.06
25936 C 73.426961432702 147.2859747352722 181.77885487408844 C 0.0 **** -0.24
25937 H 72.71802481208067 147.0983527385311 182.58470223889134 H 0.0 **** 0.06
25938 H 73.8855713007647 146.3464311903785 181.47101067930845 H 0.0 **** 0.06
25939 H 74.20033676601776 147.97103943577508 182.12742782278676 H 0.0 **** 0.06
25940 H 72.90452323642393 147.72977894374662 180.93096496115692 H 0.0 **** 0.06
25941 C 156.14653106168635 100.7513773637303 162.8146898818616 C 0.0 **** -0.24
25942 H 156.92493741397732 100.10761773580855 163.22495959601508 H 0.0 **** 0.06
25943 H 156.50032050351973 101.78212203361814 162.79808900276083 H 0.0 **** 0.06
25944 H 155.25371580177477 100.68240800387174 163.43509801636048 H 0.0 **** 0.06
25945 H 155.9095097685735 100.4320739663357 161.79973205683788 H 0.0 **** 0.06
25946 C 37.026142001967685 150.03861214644917 91.16837300546216 C 0.0 **** -0.24
25947 H 36.31433631192755 150.38301796024479 91.91858059777893 H 0.0 **** 0.06
25948 H 37.99081007182764 150.51512954554727 91.33843415360197 H 0.0 **** 0.06
25949 H 36.6613348180916 150.29971148638197 90.17518169313429 H 0.0 **** 0.06
25950 H 37.13611615172982 148.9561900902429 91.24227384286316 H 0.0 **** 0.06
25951 C 10.9758814103742 21.24231117095883 45.751472305468 C 0.0 **** -0.24
25952 H 11.512562236529732 20.59831281953437 46.4472243656966 H 0.0 **** 0.06
25953 H 11.326966747796291 22.268558470607275 45.86069092594681 H 0.0 **** 0.06
25954 H 9.907890727854465 21.1978379199618 45.96498616872735 H 0.0 **** 0.06
25955 H 11.156434063265692 20.903290521443992 44.7309038892389 H 0.0 **** 0.06
25956 C 73.26662913992664 42.78213310866829 33.38099835031856 C 0.0 **** -0.24
25957 H 72.47440716978934 42.24305664034523 32.86255546113716 H 0.0 **** 0.06
25958 H 73.82445616670287 43.38636043178565 32.665162826834745 H 0.0 **** 0.06
25959 H 73.93898283144728 42.069544809734 33.85842013532523 H 0.0 **** 0.06
25960 H 72.82774002074666 43.43067774394382 34.140285754220386 H 0.0 **** 0.06
25961 C 152.20305576634212 85.0657550008646 27.923042560489932 C 0.0 **** -0.24
25962 H 151.974219399787 85.2085876254164 26.866950758005032 H 0.0 **** 0.06
25963 H 153.27762677106307 84.9306130623249 28.047424852611755 H 0.0 **** 0.06
25964 H 151.6801674424035 84.1833691391348 28.29168483312924 H 0.0 **** 0.06
25965 H 151.8792599333534 85.94146209648851 28.485836913397435 H 0.0 **** 0.06
25966 C 84.93691208629473 118.77495998239114 111.63266166829628 C 0.0 **** -0.24
25967 H 84.05904857073632 118.19291028250201 111.91362240580791 H 0.0 **** 0.06
25968 H 85.48867416963076 119.05562769219809 112.53003137096151 H 0.0 **** 0.06
25969 H 84.62188413700919 119.67434452398741 111.10402288278048 H 0.0 **** 0.06
25970 H 85.5756225538408 118.17703110479052 110.98334886597316 H 0.0 **** 0.06
25971 C 203.59193533168252 90.18913153183809 196.47188459916117 C 0.0 **** -0.24
25972 H 202.79731749641704 90.69439841744872 197.0209292310947 H 0.0 **** 0.06
25973 H 203.22738517493656 89.22707549092803 196.11075788056507 H 0.0 **** 0.06
25974 H 204.44595361366703 90.0316841422977 197.13041647015632 H 0.0 **** 0.06
25975 H 203.8951398262142 90.8047650330488 195.62492027496774 H 0.0 **** 0.06
25976 C 43.34750043864197 118.05895365988631 60.725137304600366 C 0.0 **** -0.24
25977 H 42.866234446117616 117.56362914255546 61.56772604388817 H 0.0 **** 0.06
25978 H 44.01574960216081 117.35823323312802 60.22448365422457 H 0.0 **** 0.06
25979 H 43.919049690020856 118.914395813898 61.08466380485024 H 0.0 **** 0.06
25980 H 42.586876401388025 118.39971565474583 60.02241084282767 H 0.0 **** 0.06
25981 C 94.1227540743346 177.35598392787654 210.32855538456772 C 0.0 **** -0.24
25982 H 94.05297840628198 177.63962806271567 211.37905217681566 H 0.0 **** 0.06
25983 H 93.27704572839251 176.72154999730697 210.06593951648122 H 0.0 **** 0.06
25984 H 95.0520412215278 176.81210132386934 210.16088237683863 H 0.0 **** 0.06
25985 H 94.11056057235747 178.2533868305596 209.70932400663168 H 0.0 **** 0.06
25986 C 140.09117007405337 67.60329248629455 176.90807899103163 C 0.0 **** -0.24
25987 H 140.42063245384333 68.5614434382764 176.5081184877843 H 0.0 **** 0.06
25988 H 139.06237313523616 67.69029938454007 177.25767990191633 H 0.0 **** 0.06
25989 H 140.73520481740985 67.31712834299188 177.74072987879242 H 0.0 **** 0.06
25990 H 140.14833486800347 66.84534127864889 176.12764112134326 H 0.0 **** 0.06
25991 C 29.43820577117299 99.99805744167885 92.13072624172268 C 0.0 **** -0.24
25992 H 28.683491407421002 99.24692202792865 91.89741966620268 H 0.0 **** 0.06
25993 H 29.030547922595645 100.71183158371632 92.84673650223165 H 0.0 **** 0.06
25994 H 29.722962213895585 100.52094976006772 91.21736566725257 H 0.0 **** 0.06
25995 H 30.313458249626734 99.51166920749615 92.55946473239389 H 0.0 **** 0.06
25996 C 194.45036835918472 120.58114260108788 141.2762115988029 C 0.0 **** -0.24
25997 H 195.49889482052293 120.29587554915297 141.35736018598925 H 0.0 **** 0.06
25998 H 194.25671278218533 121.44212912507997 141.91708981170638 H 0.0 **** 0.06
25999 H 193.82220993314047 119.74708093593175 141.58967016683607 H 0.0 **** 0.06
26000 H 194.22303486094881 120.83945996649304 140.24199655617934 H 0.0 **** 0.06
26001 C 180.5244249426476 151.58211635621734 117.10472790844368 C 0.0 **** -0.24
26002 H 181.1675564938145 152.0534330962471 116.36132594433893 H 0.0 **** 0.06
26003 H 179.7015857814023 151.07226434116785 116.60220447759751 H 0.0 **** 0.06
26004 H 180.12544481737575 152.34312394387393 117.7751184227735 H 0.0 **** 0.06
26005 H 181.103824836 150.8596115257095 117.67956151129017 H 0.0 **** 0.06
26006 C 8.971868532256863 205.96269709154222 92.61718355204486 C 0.0 **** -0.24
26007 H 8.657178042401569 206.91187256041422 93.05222605639581 H 0.0 **** 0.06
26008 H 9.919180315727914 206.0983515362488 92.095364241269 H 0.0 **** 0.06
26009 H 8.215283939988367 205.61694964844014 91.9133173823074 H 0.0 **** 0.06
26010 H 9.095532761224007 205.22367530583878 93.40877883678668 H 0.0 **** 0.06
26011 C 68.00133958766253 61.48172743678751 178.04171746232532 C 0.0 **** -0.24
26012 H 67.60947271828161 61.805448070511574 179.00568604892982 H 0.0 **** 0.06
26013 H 69.08831809700376 61.41800680275756 178.095861203121 H 0.0 **** 0.06
26014 H 67.71568369293607 62.1996631388228 177.274064452146 H 0.0 **** 0.06
26015 H 67.59210179576218 60.502455068325844 177.79459970742266 H 0.0 **** 0.06
26016 C 13.196565713310633 118.56262428234 54.42242928268972 C 0.0 **** -0.24
26017 H 12.741614216050095 117.57555892813524 54.499638373566185 H 0.0 **** 0.06
26018 H 13.044095689179073 118.95570880857882 53.417663354563686 H 0.0 **** 0.06
26019 H 14.265419581587707 118.48688028179357 54.62563955472554 H 0.0 **** 0.06
26020 H 12.735334372933664 119.23171134199855 55.14913231750154 H 0.0 **** 0.06
26021 C 89.95044668752818 16.135601515298532 1.2705995492490558 C 0.0 **** -0.24
26022 H 90.24510880068048 15.272663570450078 1.8692367588868706 H 0.0 **** 0.06
26023 H 89.51918625807401 16.897083623789683 1.9202137213792412 H 0.0 **** 0.06
26024 H 89.21279967836314 15.828906279142984 0.5294861656681178 H 0.0 **** 0.06
26025 H 90.82687120091701 16.542353713596043 0.7649762931094983 H 0.0 **** 0.06
26026 C 194.39532351659574 47.88660712741819 209.55802120155192 C 0.0 **** -0.24
26027 H 194.86817821899257 48.429752623155935 210.376682639175 H 0.0 **** 0.06
26028 H 195.1232915718187 47.215801881018706 209.09896454729355 H 0.0 **** 0.06
26029 H 194.03420824035334 48.59599594483092 208.8128987872969 H 0.0 **** 0.06
26030 H 193.5576570868281 47.30562228251421 209.94240730963577 H 0.0 **** 0.06
26031 C 128.9404333123992 158.62359145907254 176.95562897133067 C 0.0 **** -0.24
26032 H 128.0782944387795 159.25302718736646 177.17379254682163 H 0.0 **** 0.06
26033 H 128.71409806213 157.9784358961399 176.10629758554754 H 0.0 **** 0.06
26034 H 129.17149120595678 158.0104845743286 177.82671239666087 H 0.0 **** 0.06
26035 H 129.7978495427305 159.2524181784553 176.71571335629284 H 0.0 **** 0.06
26036 C 138.17526753840013 181.90584689475372 42.149596186823885 C 0.0 **** -0.24
26037 H 138.28527612280965 181.74493790501947 43.22216345743351 H 0.0 **** 0.06
26038 H 137.11629818488768 181.94992631156686 41.896065040593726 H 0.0 **** 0.06
26039 H 138.64432720334514 181.08359430496424 41.60986955748348 H 0.0 **** 0.06
26040 H 138.6553542424371 182.84388016146167 41.87249247317777 H 0.0 **** 0.06
26041 C 132.16495835098044 100.8872753807965 203.7603046576067 C 0.0 **** -0.24
26042 H 131.20508590077355 101.07543814605964 203.27974167218088 H 0.0 **** 0.06
26043 H 132.55305507305894 101.81957170183279 204.1711119706846 H 0.0 **** 0.06
26044 H 132.86774131756317 100.49338271171496 203.02689564201322 H 0.0 **** 0.06
26045 H 132.0330280892842 100.16293954262937 204.56388485353304 H 0.0 **** 0.06
26046 C 191.29544836026824 46.12391948553389 155.41898200914102 C 0.0 **** -0.24
26047 H 191.6364552502717 46.71247638661748 156.27127141328833 H 0.0 **** 0.06
26048 H 190.22288145797887 46.2687506381035 155.28335626569873 H 0.0 **** 0.06
26049 H 191.4994801223817 45.068752599563354 155.60208860863133 H 0.0 **** 0.06
26050 H 191.82260352251487 46.44574521572936 154.52141599274637 H 0.0 **** 0.06
26051 C 209.29009714219816 61.46146294304627 167.89123390106016 C 0.0 **** -0.24
26052 H 208.2664281721299 61.75165266895969 167.6583007133736 H 0.0 **** 0.06
26053 H 209.45809684329151 60.43257046913985 167.57194324055217 H 0.0 **** 0.06
26054 H 209.45469433239793 61.53926401338842 168.9660603522082 H 0.0 **** 0.06
26055 H 209.982400022918 62.12174600565777 167.36968129470364 H 0.0 **** 0.06
26056 C 12.213384827785674 15.186001395576113 58.11656132261453 C 0.0 **** -0.24
26057 H 12.026521142093102 14.336038933112945 57.46072605260821 H 0.0 **** 0.06
26058 H 12.07428677371405 16.112695360678657 57.558460804604294 H 0.0 **** 0.06
26059 H 13.23593544048127 15.13786924206417 58.492144458502196 H 0.0 **** 0.06
26060 H 11.516985455804573 15.158580194353362 58.95415496828633 H 0.0 **** 0.06
26061 C 139.28522454659725 102.54274097021228 27.747225831060305 C 0.0 **** -0.24
26062 H 138.54595724702034 101.9333502707296 28.267937831375903 H 0.0 **** 0.06
26063 H 139.97264905841672 102.97802595880857 28.473478320942192 H 0.0 **** 0.06
26064 H 138.78027025844096 103.33954338651795 27.201367600056415 H 0.0 **** 0.06
26065 H 139.84173526713118 101.91882966842626 27.04797506129185 H 0.0 **** 0.06
26066 C 16.311566040277 175.97071081292586 91.50869620101587 C 0.0 **** -0.24
26067 H 15.478917711092947 176.50179473413397 91.04749693339865 H 0.0 **** 0.06
26068 H 17.052685395942206 176.69019297348729 91.85885142659119 H 0.0 **** 0.06
26069 H 16.769234881136583 175.3050937659141 90.77648562707544 H 0.0 **** 0.06
26070 H 15.946456819560154 175.38611432055217 92.35329749151354 H 0.0 **** 0.06
26071 C 145.0400132307155 0.15237713934322983 180.74184504331834 C 0.0 **** -0.24
26072 H 144.22494607972425 -0.37878969588834366 181.2321678437482 H 0.0 **** 0.06
26073 H 145.66687545238682 0.63036620970027 181.4948572253795 H 0.0 **** 0.06
26074 H 144.62998912418692 0.9113756943327189 180.07596325674842 H 0.0 **** 0.06
26075 H 145.6380574196578 -0.5524610560186431 180.16441071857497 H 0.0 **** 0.06
26076 C 64.49144735608954 165.27670901407257 215.06899253506978 C 0.0 **** -0.24
26077 H 64.13638233968828 165.93339823844337 214.27466499797214 H 0.0 **** 0.06
26078 H 65.09582559972353 164.47894206304503 214.63732951135762 H 0.0 **** 0.06
26079 H 63.63872766515692 164.84561069213498 215.59200350561366 H 0.0 **** 0.06
26080 H 65.09595257411218 165.85077822494574 215.77151522242607 H 0.0 **** 0.06
26081 C 89.83036388371632 134.0772819207898 22.321653633432618 C 0.0 **** -0.24
26082 H 90.77180009477756 134.56322580855226 22.065836254345186 H 0.0 **** 0.06
26083 H 89.85234873986259 133.7729333415786 23.369431182982566 H 0.0 **** 0.06
26084 H 89.69196000458491 133.19964902681295 21.691410838260765 H 0.0 **** 0.06
26085 H 89.00714043261281 134.77386393159856 22.162849385681625 H 0.0 **** 0.06
26086 C 55.30729078453487 148.63250113179402 28.53646205630514 C 0.0 **** -0.24
26087 H 56.375767884191106 148.41754807934706 28.562806256174753 H 0.0 **** 0.06
26088 H 55.037393353033394 149.24232250457885 29.39807356357116 H 0.0 **** 0.06
26089 H 54.74852456365626 147.69721077697437 28.5629458672432 H 0.0 **** 0.06
26090 H 55.068678226847084 149.17326551081095 27.61991522569903 H 0.0 **** 0.06
26091 C 88.14401927588455 154.0481748233036 171.61897918784578 C 0.0 **** -0.24
26092 H 89.21416565431923 153.89848281075535 171.76391081185687 H 0.0 **** 0.06
26093 H 87.98011615740535 154.95911139045643 171.0432218812346 H 0.0 **** 0.06
26094 H 87.65528080633635 154.13753691546174 172.5888143543308 H 0.0 **** 0.06
26095 H 87.72882706467908 153.1969468817844 171.0794538823305 H 0.0 **** 0.06
26096 C 124.1256460071636 27.65700140402049 67.51125793073535 C 0.0 **** -0.24
26097 H 123.76179643379453 26.772292626989525 66.98890460025336 H 0.0 **** 0.06
26098 H 123.95338969569099 28.539693130202153 66.89569947695414 H 0.0 **** 0.06
26099 H 125.19334768728237 27.55055142535221 67.70463494933911 H 0.0 **** 0.06
26100 H 123.59408807719598 27.76390611683547 68.45739201421291 H 0.0 **** 0.06
26101 C 96.88588299542845 58.88471199975156 193.63449672768448 C 0.0 **** -0.24
26102 H 97.70398235689974 58.28233553168779 193.23825288867667 H 0.0 **** 0.06
26103 H 96.21716701269132 58.25092688074743 194.21667066109677 H 0.0 **** 0.06
26104 H 96.33412105881071 59.33509164605984 192.8088296691684 H 0.0 **** 0.06
26105 H 97.29061102645575 59.67049407129065 194.27265885481341 H 0.0 **** 0.06
26106 C 155.5644065552442 29.735007825422684 7.51812896193114 C 0.0 **** -0.24
26107 H 154.99559941122368 30.570923475104337 7.924863014921087 H 0.0 **** 0.06
26108 H 155.8574216950409 29.06639990793201 8.327958405464884 H 0.0 **** 0.06
26109 H 156.45650561222214 30.112261551685265 7.01740943123734 H 0.0 **** 0.06
26110 H 154.9487355132054 29.19190950771747 6.80161063687423 H 0.0 **** 0.06
26111 C 132.4798777097509 1.6173786795974294 156.75959976465498 C 0.0 **** -0.24
26112 H 132.24311609716756 2.6342701127409853 156.44465864449262 H 0.0 **** 0.06
26113 H 133.5537005512648 1.530380697422416 156.92783176945522 H 0.0 **** 0.06
26114 H 132.17620184331423 0.916920642213924 155.9819233313936 H 0.0 **** 0.06
26115 H 131.94709162264667 1.389268617148069 157.68304490686558 H 0.0 **** 0.06
26116 C 0.8707925487485397 105.89504517212545 200.74983651806832 C 0.0 **** -0.24
26117 H 0.2764133099185315 105.96043749726938 201.66109240877012 H 0.0 **** 0.06
26118 H 0.4996208042517054 106.61713782827955 200.02176791658445 H 0.0 **** 0.06
26119 H 0.7925308704074894 104.8897076356936 200.3373251055961 H 0.0 **** 0.06
26120 H 1.9139561970131425 106.1132506162209 200.97983463533757 H 0.0 **** 0.06
26121 C 99.05001836037566 34.5847216007066 107.5873379689905 C 0.0 **** -0.24
26122 H 98.08150328551447 34.094839175778134 107.68892487742006 H 0.0 **** 0.06
26123 H 99.2022381459182 35.26529058160442 108.42473162004002 H 0.0 **** 0.06
26124 H 99.07692233093597 35.145984168830566 106.65335796818742 H 0.0 **** 0.06
26125 H 99.8386915180473 33.83260687655495 107.58166151222822 H 0.0 **** 0.06
26126 C 44.50283791573702 11.744308223697601 192.7026575898163 C 0.0 **** -0.24
26127 H 45.47156853509364 12.243081353668117 192.68239727161756 H 0.0 **** 0.06
26128 H 44.11490728424445 11.745496205546686 193.72164265482306 H 0.0 **** 0.06
26129 H 44.61626866183872 10.716764145211869 192.35770576342063 H 0.0 **** 0.06
26130 H 43.80814107685103 12.273226273461376 192.04890292381899 H 0.0 **** 0.06
26131 C 132.51681130855582 33.3540423923301 131.12016476596807 C 0.0 **** -0.24
26132 H 131.79651732791507 33.103605371864646 130.34184349314074 H 0.0 **** 0.06
26133 H 132.2602122911295 34.320365495530964 131.55555741584982 H 0.0 **** 0.06
26134 H 133.51595794093265 33.405346126318605 130.68637093531873 H 0.0 **** 0.06
26135 H 132.4951149531617 32.588098664983704 131.89511612210157 H 0.0 **** 0.06
26136 C 199.1526152980526 72.85356597066976 7.304664920569607 C 0.0 **** -0.24
26137 H 198.7662003502806 73.41357267527701 8.155892331775533 H 0.0 **** 0.06
26138 H 198.647917771597 73.182024494612 6.395222471368413 H 0.0 **** 0.06
26139 H 198.97067735815165 71.7898996210784 7.456962695694372 H 0.0 **** 0.06
26140 H 200.22402075697823 73.0292720906665 7.21038432166371 H 0.0 **** 0.06
26141 C 198.11371976942328 154.61529988975684 73.96922827632515 C 0.0 **** -0.24
26142 H 197.18885327195375 154.92173091044918 74.45865052766301 H 0.0 **** 0.06
26143 H 198.6404039260679 155.49766091064265 73.60596946854552 H 0.0 **** 0.06
26144 H 197.879354785058 153.96032673046727 73.12957515421458 H 0.0 **** 0.06
26145 H 198.74241142464365 154.0828454998312 74.68159000330259 H 0.0 **** 0.06
26146 C 36.52299364291508 179.36880277249702 216.4832410201362 C 0.0 **** -0.24
26147 H 37.55558530939797 179.0613082053462 216.32238501646196 H 0.0 **** 0.06
26148 H 36.50562916877361 180.32481139957014 217.00793916326234 H 0.0 **** 0.06
26149 H 36.00974514697718 178.61593734998024 217.08269393621893 H 0.0 **** 0.06
26150 H 36.020576160235805 179.47176088082946 215.52163900739788 H 0.0 **** 0.06
26151 C 184.6301396927784 181.58443943687837 12.110445846804126 C 0.0 **** -0.24
26152 H 183.58051682736533 181.6185661424975 12.400610158007481 H 0.0 **** 0.06
26153 H 184.755668633598 182.07687411201965 11.145207149145364 H 0.0 **** 0.06
26154 H 184.95209595269853 180.54522061233905 12.032679756474408 H 0.0 **** 0.06
26155 H 185.23182969551567 182.09614752332408 12.860475901559667 H 0.0 **** 0.06
26156 C 210.72284763183188 106.544328010945 100.44576396550246 C 0.0 **** -0.24
26157 H 209.81512061931016 106.75496975574235 99.87944967219028 H 0.0 **** 0.06
26158 H 211.58880352133278 106.90285439403415 99.88903030268352 H 0.0 **** 0.06
26159 H 210.81118934375237 105.46900520981701 100.60248908111043 H 0.0 **** 0.06
26160 H 210.6748955983738 107.04933417304251 101.41042168297395 H 0.0 **** 0.06
26161 C 180.7790196511074 168.49460859272838 14.261458459768448 C 0.0 **** -0.24
26162 H 181.61359034238376 167.9176970009536 13.863721230559577 H 0.0 **** 0.06
26163 H 181.15018732531945 169.43563923335233 14.667924983297553 H 0.0 **** 0.06
26164 H 180.2885132245708 167.92559904787956 15.05146651445915 H 0.0 **** 0.06
26165 H 180.0658709800491 168.69800434106904 13.463915204518912 H 0.0 **** 0.06
26166 C 112.36281374844289 4.475437741726012 38.44896470210077 C 0.0 **** -0.24
26167 H 111.95695772231944 4.267543950919645 37.45806449339642 H 0.0 **** 0.06
26168 H 111.5799410622284 4.343713450547028 39.19633356470797 H 0.0 **** 0.06
26169 H 112.72933956035386 5.501222478006127 38.48313537063234 H 0.0 **** 0.06
26170 H 113.1833872188325 3.788840614125178 38.656855775899885 H 0.0 **** 0.06
26171 C 111.98047357576337 5.389146696080928 154.79294831672507 C 0.0 **** -0.24
26172 H 112.26087363653284 4.968392004943496 155.7593470220205 H 0.0 **** 0.06
26173 H 112.87337186968995 5.751920186272827 154.28258257606484 H 0.0 **** 0.06
26174 H 111.28807612423356 6.217293716028934 154.9454095433693 H 0.0 **** 0.06
26175 H 111.50147375828499 4.620199694925844 154.1879038565067 H 0.0 **** 0.06
26176 C 189.17794766689389 117.38629552000049 128.60591139637563 C 0.0 **** -0.24
26177 H 188.71744253127594 118.18598217212133 128.02741992437427 H 0.0 **** 0.06
26178 H 189.2846735345879 116.49990418812513 127.98021087638672 H 0.0 **** 0.06
26179 H 188.54951068900544 117.1517286673996 129.46547320624472 H 0.0 **** 0.06
26180 H 190.16056675653618 117.70823657854618 128.95172034286145 H 0.0 **** 0.06
26181 C 82.8060419028813 162.9449063815433 38.784978918632774 C 0.0 **** -0.24
26182 H 83.06187423209906 162.401685369676 39.694789278818945 H 0.0 **** 0.06
26183 H 82.42445363840375 163.93264925139803 39.0458152199828 H 0.0 **** 0.06
26184 H 82.04210775624057 162.39384130860472 38.235617418364214 H 0.0 **** 0.06
26185 H 83.69487696858567 163.0512744390672 38.16258096759255 H 0.0 **** 0.06
26186 C 20.246426643984023 200.94191700221452 58.732201872039255 C 0.0 **** -0.24
26187 H 21.13956142464872 200.47725109098778 58.31352418621556 H 0.0 **** 0.06
26188 H 20.5240311439091 201.86239382056218 59.24760010344923 H 0.0 **** 0.06
26189 H 19.777542483829038 200.25675295453254 59.43820399856335 H 0.0 **** 0.06
26190 H 19.54619092948157 201.17183509061118 57.929237519941 H 0.0 **** 0.06
26191 C 110.10853800005303 195.60870350068393 215.19946808766304 C 0.0 **** -0.24
26192 H 109.94621390275144 196.39156328134965 215.94119553729206 H 0.0 **** 0.06
26193 H 109.39793103297727 194.79859318159214 215.36606088768067 H 0.0 **** 0.06
26194 H 111.12439011800525 195.22566386804033 215.29209225599243 H 0.0 **** 0.06
26195 H 109.96452502147558 196.020020314893 214.20046114364732 H 0.0 **** 0.06
26196 C 121.75199683769252 90.7863810981189 151.90538639377291 C 0.0 **** -0.24
26197 H 120.8106476229962 91.33261530027478 151.8485534552118 H 0.0 **** 0.06
26198 H 121.55416797375268 89.7484352413759 152.17430141243113 H 0.0 **** 0.06
26199 H 122.39129338870806 91.24321350392044 152.66038652488692 H 0.0 **** 0.06
26200 H 122.250985844102 90.82242851813281 150.93661928891163 H 0.0 **** 0.06
26201 C 205.1482378906477 204.87811575893033 23.28875015606559 C 0.0 **** -0.24
26202 H 204.91006163258544 204.8469795084632 22.22501862995567 H 0.0 **** 0.06
26203 H 206.22865513305382 204.94162798461187 23.41714763031254 H 0.0 **** 0.06
26204 H 204.7772354442871 203.97333445312114 23.76971283814032 H 0.0 **** 0.06
26205 H 204.67563126069987 205.7500019038754 23.74031814572865 H 0.0 **** 0.06
26206 C 168.79402163647381 210.41460538280063 151.583373090156 C 0.0 **** -0.24
26207 H 168.9550885654435 210.4399734417512 152.66095744280466 H 0.0 **** 0.06
26208 H 169.7036474844124 210.07376843123166 151.0885487459782 H 0.0 **** 0.06
26209 H 168.53999826518742 211.41388068830207 151.23122097791156 H 0.0 **** 0.06
26210 H 167.9767873253269 209.72944042345657 151.3544490341847 H 0.0 **** 0.06
26211 C 87.72110243566493 51.77448228965871 54.236660785022025 C 0.0 **** -0.24
26212 H 87.40230468776593 52.739033123348364 53.84220063098445 H 0.0 **** 0.06
26213 H 88.2766142140776 51.92552635160854 55.16229164757499 H 0.0 **** 0.06
26214 H 88.36006150096352 51.277279588703536 53.50581815541585 H 0.0 **** 0.06
26215 H 86.8453741013264 51.156058472175474 54.43388402271205 H 0.0 **** 0.06
26216 C 113.61153691867503 162.30909893800697 20.3704811978954 C 0.0 **** -0.24
26217 H 113.99053188810092 161.35205385856108 20.010480248083468 H 0.0 **** 0.06
26218 H 114.42301021313722 162.87011624931313 20.832502606018068 H 0.0 **** 0.06
26219 H 112.82502045796389 162.13449644171067 21.105049759606203 H 0.0 **** 0.06
26220 H 113.20735622285275 162.87666754841229 19.532637558732347 H 0.0 **** 0.06
26221 C 174.0243005785417 105.2613785091312 0.5137044871762058 C 0.0 **** -0.24
26222 H 175.1029928067307 105.36748768264216 0.6278668839940877 H 0.0 **** 0.06
26223 H 173.53082397218014 106.1663289728457 0.8679115321597521 H 0.0 **** 0.06
26224 H 173.67949552066304 104.40710125309779 1.0965801034080371 H 0.0 **** 0.06
26225 H 173.78450276588174 105.1043627520787 -0.5382956129187306 H 0.0 **** 0.06
26226 C 155.2109560946356 1.6738568007898778 17.50208898815839 C 0.0 **** -0.24
26227 H 155.15955946858804 2.5370489899671895 16.838457487379415 H 0.0 **** 0.06
26228 H 156.24586712090962 1.3453165905779088 17.59131687028045 H 0.0 **** 0.06
26229 H 154.60677263289625 0.8647741011875496 17.091659132432554 H 0.0 **** 0.06
26230 H 154.82955941864554 1.9485366565915 18.48562988297583 H 0.0 **** 0.06
26231 C 113.17363329891181 168.96771121916117 97.26860204522679 C 0.0 **** -0.24
26232 H 112.36591703267574 168.73456646084927 97.9614794299146 H 0.0 **** 0.06
26233 H 112.9573577659557 168.52569770152863 96.29609647834765 H 0.0 **** 0.06
26234 H 114.1097083434503 168.56115331493774 97.65265195568075 H 0.0 **** 0.06
26235 H 113.2630072262608 170.04877699492238 97.16574674812715 H 0.0 **** 0.06
26236 C 202.12550256721235 87.57709215924177 61.38819808850596 C 0.0 **** -0.24
26237 H 201.70937385988003 87.24657829773929 60.4360984947654 H 0.0 **** 0.06
26238 H 202.09949435150477 86.75338695106893 62.101320401125236 H 0.0 **** 0.06
26239 H 201.53673298799595 88.40915187651467 61.7721383403691 H 0.0 **** 0.06
26240 H 203.15700292756372 87.89816360508922 61.24112232492428 H 0.0 **** 0.06
26241 C 127.90786705777954 178.6404615844937 196.32813540029485 C 0.0 **** -0.24
26242 H 127.49126490599916 177.84901699771052 196.95260259745552 H 0.0 **** 0.06
26243 H 127.2668574492984 178.79195735850135 195.45930005375044 H 0.0 **** 0.06
26244 H 128.90603206215468 178.35507748258084 195.9981889647545 H 0.0 **** 0.06
26245 H 127.96542112668284 179.5642211128372 196.90384365913536 H 0.0 **** 0.06
26246 C 136.27846724992554 153.75681378646124 164.2996930585543 C 0.0 **** -0.24
26247 H 137.13919992511 153.55543632024944 163.6621003109109 H 0.0 **** 0.06
26248 H 135.36605443676626 153.4540093979801 163.78379817080923 H 0.0 **** 0.06
26249 H 136.23352472156245 154.82245837998346 164.52311842980927 H 0.0 **** 0.06
26250 H 136.37420660804196 153.19393822058987 165.22795983166088 H 0.0 **** 0.06
26251 C 141.05686017154085 107.18373058287146 76.91460085012704 C 0.0 **** -0.24
26252 H 141.17515865068236 107.51886163485081 77.94467937726148 H 0.0 **** 0.06
26253 H 140.8766523909136 106.10859050510227 76.90027904252645 H 0.0 **** 0.06
26254 H 141.96398803957402 107.40817956852159 76.35336754490635 H 0.0 **** 0.06
26255 H 140.21143528073492 107.70085217890689 76.46079786924696 H 0.0 **** 0.06
26256 C 206.72861623158929 24.87097883909314 104.34142697747626 C 0.0 **** -0.24
26257 H 206.08008852822311 24.138044921885182 104.82080346711075 H 0.0 **** 0.06
26258 H 206.19958936163283 25.819386374836114 104.24865386100652 H 0.0 **** 0.06
26259 H 207.01080671032383 24.512630011528444 103.35072681476993 H 0.0 **** 0.06
26260 H 207.6250348073352 25.01128824662021 104.9449716187338 H 0.0 **** 0.06
26261 C 201.8251490827397 174.54827480665313 19.79104395195253 C 0.0 **** -0.24
26262 H 202.5353824849534 173.8744445062078 20.270091313822434 H 0.0 **** 0.06
26263 H 201.9363950291862 174.48346085269392 18.708407984892517 H 0.0 **** 0.06
26264 H 202.01860528579715 175.57049972730331 20.115810085267924 H 0.0 **** 0.06
26265 H 200.81080927590946 174.26391536706416 20.0700629360594 H 0.0 **** 0.06
26266 C 81.24469740772741 34.56869791544392 43.36682350544636 C 0.0 **** -0.24
26267 H 82.0920137146677 34.91052656775422 43.96080109476769 H 0.0 **** 0.06
26268 H 80.65733330011602 35.428455159813296 43.042775606407744 H 0.0 **** 0.06
26269 H 80.62137684636645 33.90876363303735 43.969739210973174 H 0.0 **** 0.06
26270 H 81.60897806898026 34.02763557450656 42.49262884394224 H 0.0 **** 0.06
26271 C 203.95565379927316 97.76680763233082 186.61312017094352 C 0.0 **** -0.24
26272 H 203.75509654497733 98.03360602919264 187.65083330201372 H 0.0 **** 0.06
26273 H 205.00654733497777 97.94903329176304 186.38763019809298 H 0.0 **** 0.06
26274 H 203.33236657240747 98.37192997471197 185.95543247517554 H 0.0 **** 0.06
26275 H 203.72871464673432 96.71171991416509 186.45890385754018 H 0.0 **** 0.06
26276 C 80.34741829934342 59.4011300598749 174.62540509443562 C 0.0 **** -0.24
26277 H 80.41377402522971 58.47214940880727 175.1914837109011 H 0.0 **** 0.06
26278 H 79.36327369809521 59.4745569529762 174.16280696546517 H 0.0 **** 0.06
26279 H 81.11483144271358 59.41038588979157 173.8516619027905 H 0.0 **** 0.06
26280 H 80.49684720415962 60.24716525603594 175.29668491418977 H 0.0 **** 0.06
26281 C 84.43187957276723 16.1943951186136 205.91281079026712 C 0.0 **** -0.24
26282 H 84.13422688867547 17.035040019122576 206.53890435637555 H 0.0 **** 0.06
26283 H 84.3696152508345 16.483068448541474 204.86333567954898 H 0.0 **** 0.06
26284 H 83.76833343142732 15.350582977767118 206.09762880418134 H 0.0 **** 0.06
26285 H 85.45765898457017 15.909972371493126 206.149805423042 H 0.0 **** 0.06
26286 C 37.049600684500916 40.50007408882777 104.52497039060883 C 0.0 **** -0.24
26287 H 37.593329924822 40.286670232386655 103.60413030604617 H 0.0 **** 0.06
26288 H 36.15849603910556 39.87402575877496 104.57282579053485 H 0.0 **** 0.06
26289 H 36.75732311104565 41.550128341758125 104.53838771570993 H 0.0 **** 0.06
26290 H 37.68936757447574 40.289622227760105 105.38122645901144 H 0.0 **** 0.06
26291 C 134.70478464160766 69.32987925494376 206.76554233737988 C 0.0 **** -0.24
26292 H 135.56414406768272 69.12518509849899 207.40479724097574 H 0.0 **** 0.06
26293 H 134.40255366734573 70.36989071700513 206.88657012501045 H 0.0 **** 0.06
26294 H 133.87889068132114 68.67649458032622 207.0463051653179 H 0.0 **** 0.06
26295 H 134.97540001189776 69.1479246016752 205.72525681431713 H 0.0 **** 0.06
26296 C 105.65675588300006 109.23645178251509 204.73625484097164 C 0.0 **** -0.24
26297 H 104.8532582788808 109.92129143357953 204.4629721861736 H 0.0 **** 0.06
26298 H 105.89510904741614 108.59852861080454 203.88521081654636 H 0.0 **** 0.06
26299 H 105.33708497816461 108.61994020481471 205.5751881456105 H 0.0 **** 0.06
26300 H 106.5394296998722 109.80909557919277 205.02130247718077 H 0.0 **** 0.06
26301 C 0.5232648172798235 90.97991089249065 64.80071951756975 C 0.0 **** -0.24
26302 H -0.1701066198804142 91.73810817334218 64.43672216810549 H 0.0 **** 0.06
26303 H 1.515097907819893 91.1679384083563 64.38948003480061 H 0.0 **** 0.06
26304 H 0.1803572164843672 89.99394765860983 64.48691063175863 H 0.0 **** 0.06
26305 H 0.5667040244795203 91.0196885301984 65.88877277838469 H 0.0 **** 0.06
26306 C 82.14407922078091 197.17331568654825 8.228011086418974 C 0.0 **** -0.24
26307 H 81.3914380394905 197.95829529799022 8.304237097546093 H 0.0 **** 0.06
26308 H 81.93903286918767 196.40058012069966 8.96915741591647 H 0.0 **** 0.06
26309 H 83.1312767161884 197.59917374518466 8.410349161322955 H 0.0 **** 0.06
26310 H 82.11478581194767 196.73785563380386 7.229705242350462 H 0.0 **** 0.06
26311 C 87.48719900569995 187.40063730848294 43.25430829330625 C 0.0 **** -0.24
26312 H 87.94375578276095 187.397801837711 42.26508941585561 H 0.0 **** 0.06
26313 H 86.87850597789895 188.29757413148815 43.37086848528139 H 0.0 **** 0.06
26314 H 88.26900723675163 187.38950455201797 44.01479834269185 H 0.0 **** 0.06
26315 H 86.85845249222427 186.51698269978675 43.36729725329329 H 0.0 **** 0.06
26316 C 180.06654794660525 156.03520533674055 187.37583023612797 C 0.0 **** -0.24
26317 H 179.75027219439227 155.10699710959597 186.90136079676546 H 0.0 **** 0.06
26318 H 180.58373903972543 155.80843014284721 188.3085421606894 H 0.0 **** 0.06
26319 H 179.19335900240497 156.652941278676 187.58407888301753 H 0.0 **** 0.06
26320 H 180.7406134241973 156.5728253940137 186.70805440300506 H 0.0 **** 0.06
26321 C 179.12375894317412 197.66679914758393 78.30985987371066 C 0.0 **** -0.24
26322 H 178.56142821441836 198.59083891364725 78.17627171686881 H 0.0 **** 0.06
26323 H 178.47976325030254 196.81432123571076 78.09281816877551 H 0.0 **** 0.06
26324 H 179.47704101881192 197.6030898001332 79.33887592053257 H 0.0 **** 0.06
26325 H 179.9768414587874 197.66023723846837 77.6320506936489 H 0.0 **** 0.06
26326 C 38.01611367664606 18.523805439384944 104.87128937865658 C 0.0 **** -0.24
26327 H 38.51630665341804 17.75759045917374 104.2789619968673 H 0.0 **** 0.06
26328 H 38.03310362577679 19.47030381191155 104.33075509401995 H 0.0 **** 0.06
26329 H 38.53269318152081 18.64106993277082 105.82427983094449 H 0.0 **** 0.06
26330 H 36.98331618333833 18.226591872209724 105.05213893869491 H 0.0 **** 0.06
26331 C 134.0756745717532 4.491770442647841 23.271334047759325 C 0.0 **** -0.24
26332 H 134.19302883748958 3.4321026424502605 23.50214413714386 H 0.0 **** 0.06
26333 H 133.01785603275408 4.754329774988307 23.304735963648767 H 0.0 **** 0.06
26334 H 134.4689689206483 4.692167727743701 22.275437669976228 H 0.0 **** 0.06
26335 H 134.62061215608293 5.085583548171762 24.00492054918449 H 0.0 **** 0.06
26336 C 12.259557456101206 61.85458834273781 194.78145211873203 C 0.0 **** -0.24
26337 H 11.797639837941446 62.41172059907436 195.59652383318775 H 0.0 **** 0.06
26338 H 12.557849593370506 60.86851458882266 195.140699287007 H 0.0 **** 0.06
26339 H 13.137960776484007 62.39270752390439 194.4263725843345 H 0.0 **** 0.06
26340 H 11.545775923091199 61.743864295707084 193.96652745536647 H 0.0 **** 0.06
26341 C 28.952725491996162 113.10232630223847 43.688569585907715 C 0.0 **** -0.24
26342 H 28.333086999984317 113.902586943456 43.282224651854335 H 0.0 **** 0.06
26343 H 28.691561940110333 112.16068114217911 43.20572890073646 H 0.0 **** 0.06
26344 H 28.78102956190922 113.0205190220032 44.762575749563496 H 0.0 **** 0.06
26345 H 30.00296933786774 113.3272918913904 43.504628090826714 H 0.0 **** 0.06
26346 C 125.18894235287026 94.30475333123213 214.9203478988928 C 0.0 **** -0.24
26347 H 125.73871873082335 95.19793064473357 215.21534847453776 H 0.0 **** 0.06
26348 H 124.862261452016 94.4040389064575 213.88497738156298 H 0.0 **** 0.06
26349 H 124.31802485933927 94.18500717625905 215.56624397951217 H 0.0 **** 0.06
26350 H 125.83518602503945 93.4322851736162 215.01667840773973 H 0.0 **** 0.06
26351 C 154.9649409697068 65.33680253678389 209.39308703605207 C 0.0 **** -0.24
26352 H 155.4179842684194 64.84524465837467 208.53274016362374 H 0.0 **** 0.06
26353 H 154.54893621557562 64.58487613486048 210.06351068138252 H 0.0 **** 0.06
26354 H 154.17096730899164 66.00309172642642 209.0555226990542 H 0.0 **** 0.06
26355 H 155.72413400592558 65.91425078423947 209.92148991989262 H 0.0 **** 0.06
26356 C 49.1830100152731 179.07000890698617 59.815469819614464 C 0.0 **** -0.24
26357 H 48.13546659976818 179.34407316626385 59.934110809571166 H 0.0 **** 0.06
26358 H 49.70540791346501 179.21344464510372 60.76160288149612 H 0.0 **** 0.06
26359 H 49.637908492229286 179.70007320628088 59.0502714703066 H 0.0 **** 0.06
26360 H 49.25401336443562 178.02458651485142 59.5149774145367 H 0.0 **** 0.06
26361 C 20.497452425786193 186.5978606270296 96.5370816481025 C 0.0 **** -0.24
26362 H 20.456659383611637 187.31095853669228 95.71338483199175 H 0.0 **** 0.06
26363 H 21.333449254080847 185.9155978622559 96.38584360714894 H 0.0 **** 0.06
26364 H 19.566982651687397 186.0318620381266 96.57423973541522 H 0.0 **** 0.06
26365 H 20.63232427650989 187.13596454782208 97.475303844256 H 0.0 **** 0.06
26366 C 192.949216186114 43.565124212866806 185.193798556842 C 0.0 **** -0.24
26367 H 192.48483277580743 44.491385581739934 184.854791080803 H 0.0 **** 0.06
26368 H 192.28800983356857 42.726579792207275 184.9745280477694 H 0.0 **** 0.06
26369 H 193.12494623895248 43.61893556550325 186.26816414751747 H 0.0 **** 0.06
26370 H 193.8985498826264 43.42401846516054 184.67646805444605 H 0.0 **** 0.06
26371 C 34.86086320501539 59.433934231744104 50.32508724331534 C 0.0 **** -0.24
26372 H 34.2437393679439 60.148637455506844 49.78150229890339 H 0.0 **** 0.06
26373 H 35.25305066871027 58.69021116482929 49.630544839695546 H 0.0 **** 0.06
26374 H 34.25737070769304 58.93807691219763 51.08576225354386 H 0.0 **** 0.06
26375 H 35.68846104253015 59.95834303652879 50.802839650544016 H 0.0 **** 0.06
26376 C 29.97484523996218 197.55615368739825 146.986491962912 C 0.0 **** -0.24
26377 H 29.912833172152375 196.57868112842124 146.50831622746364 H 0.0 **** 0.06
26378 H 30.857496305880204 197.59204096958064 147.6260389566067 H 0.0 **** 0.06
26379 H 29.08219472738631 197.72296995452254 147.5893696721359 H 0.0 **** 0.06
26380 H 30.04765982100497 198.33077638062227 146.2228206566939 H 0.0 **** 0.06
26381 C 103.34368927884964 144.49814048176728 70.05466779303636 C 0.0 **** -0.24
26382 H 103.54291072750686 144.28773778798984 69.00400911720784 H 0.0 **** 0.06
26383 H 104.04924273719939 143.94715545797305 70.67586175916291 H 0.0 **** 0.06
26384 H 102.326328876562 144.19178700916183 70.29864833201826 H 0.0 **** 0.06
26385 H 103.45475976963144 145.56643163824015 70.23743121607784 H 0.0 **** 0.06
26386 C 123.04199693155302 67.0125715478535 117.69669406834113 C 0.0 **** -0.24
26387 H 122.7282149646701 68.01097395193426 117.99975616870599 H 0.0 **** 0.06
26388 H 122.28818757928788 66.28609462623581 118.00197410034606 H 0.0 **** 0.06
26389 H 123.99273713145912 66.7714556555029 118.17095698718525 H 0.0 **** 0.06
26390 H 123.15793507894644 66.98189840412277 116.61301761678824 H 0.0 **** 0.06
26391 C 196.4067487109695 94.46324420463752 46.91826773959252 C 0.0 **** -0.24
26392 H 197.17184132250702 94.9732139666608 47.50556435323796 H 0.0 **** 0.06
26393 H 196.5113240944083 94.73992810507822 45.8691675799065 H 0.0 **** 0.06
26394 H 195.4200239495808 94.75706979610256 47.27597278638001 H 0.0 **** 0.06
26395 H 196.5257952821298 93.38557241712651 47.02463760352538 H 0.0 **** 0.06
26396 C 123.43246647725 68.9417109020405 5.120560643985158 C 0.0 **** -0.24
26397 H 123.45524990994197 67.86208129811034 4.976394247602798 H 0.0 **** 0.06
26398 H 122.46451297180066 69.23252911793107 5.529653452768855 H 0.0 **** 0.06
26399 H 123.58587831621288 69.43939494843279 4.163101228781336 H 0.0 **** 0.06
26400 H 124.22209889017363 69.23400230258748 5.812738746526591 H 0.0 **** 0.06
26401 C 171.0274126379748 188.99229241744388 146.17320991111706 C 0.0 **** -0.24
26402 H 170.15961777110329 189.03407024467538 146.83161542626743 H 0.0 **** 0.06
26403 H 170.70872094745306 189.15255368173734 145.14332930307336 H 0.0 **** 0.06
26404 H 171.50082346005803 188.01407899295683 146.2589935402113 H 0.0 **** 0.06
26405 H 171.7383681223348 189.76660641139898 146.45911068396708 H 0.0 **** 0.06
26406 C 50.212051330984764 43.599420280959976 183.00863752103635 C 0.0 **** -0.24
26407 H 50.670208019488086 44.275714615052635 182.28627433270663 H 0.0 **** 0.06
26408 H 50.883775537685835 42.76228972444869 183.19807129437316 H 0.0 **** 0.06
26409 H 49.269362014890845 43.225631545774775 182.60877507682576 H 0.0 **** 0.06
26410 H 50.02603811270859 44.134184505487326 183.9392864448323 H 0.0 **** 0.06
26411 C 120.61761551773314 205.4186893644816 89.95569494773095 C 0.0 **** -0.24
26412 H 120.26380941820524 205.31138528433206 88.93062704556876 H 0.0 **** 0.06
26413 H 121.65044388847271 205.76831939688762 89.94741547575394 H 0.0 **** 0.06
26414 H 120.56355855211679 204.4545652725231 90.46109252660706 H 0.0 **** 0.06
26415 H 119.99360862000474 206.14069775909783 90.4816354316752 H 0.0 **** 0.06
26416 C 194.73029926798444 142.90103073594253 107.95752044921626 C 0.0 **** -0.24
26417 H 194.28798714347334 143.00200926848538 106.9664823796732 H 0.0 **** 0.06
26418 H 195.0034943335191 143.88729612339228 108.33464404081572 H 0.0 **** 0.06
26419 H 195.62111891396586 142.27586333495157 107.89552675586997 H 0.0 **** 0.06
26420 H 194.00972495418887 142.44022312829333 108.63197364686725 H 0.0 **** 0.06
26421 C 74.95350867383736 185.59344047863823 52.68005803505861 C 0.0 **** -0.24
26422 H 75.23859651123387 186.38700012899486 53.370387039131685 H 0.0 **** 0.06
26423 H 73.9214162498498 185.29924763010857 52.87050469878284 H 0.0 **** 0.06
26424 H 75.6090815198243 184.73507201331267 52.82299137389225 H 0.0 **** 0.06
26425 H 75.045969069223 185.9540497341019 51.65481357438813 H 0.0 **** 0.06
26426 C 170.71383550343597 193.15509691618337 174.8227758323697 C 0.0 **** -0.24
26427 H 170.28978319682778 194.15282913770432 174.71061439460118 H 0.0 **** 0.06
26428 H 170.6202687602082 192.8355943306866 175.860725012395 H 0.0 **** 0.06
26429 H 171.76737949723218 193.1752686318558 174.5425182627931 H 0.0 **** 0.06
26430 H 170.17978127725922 192.45769374918058 174.17795567872878 H 0.0 **** 0.06
26431 C 48.04683637574992 213.64831031443956 166.69402529804574 C 0.0 **** -0.24
26432 H 47.062681945098674 214.03956316771726 166.43468688683924 H 0.0 **** 0.06
26433 H 48.383019283140854 212.96470700087423 165.91466165187012 H 0.0 **** 0.06
26434 H 47.98755621192869 213.11675995457898 167.64364533221197 H 0.0 **** 0.06
26435 H 48.75308535955105 214.47327624879455 166.7840347740663 H 0.0 **** 0.06
26436 C 57.21645757958689 15.133781639335439 207.24188319434336 C 0.0 **** -0.24
26437 H 58.20845872715017 15.562785094624559 207.38611533009535 H 0.0 **** 0.06
26438 H 56.55667507437471 15.883766772629372 206.80555936569718 H 0.0 **** 0.06
26439 H 56.81573209551911 14.81251356178629 208.20330924244263 H 0.0 **** 0.06
26440 H 57.286153585427314 14.276462862258597 206.57189727761966 H 0.0 **** 0.06
26441 C 146.93153956908634 150.94273169146425 209.0441048055836 C 0.0 **** -0.24
26442 H 147.91788828638215 151.25755236907042 209.38372116634324 H 0.0 **** 0.06
26443 H 146.78655564345547 149.88801806818742 209.27617151404695 H 0.0 **** 0.06
26444 H 146.8546400568173 151.09229423665204 207.966620389786 H 0.0 **** 0.06
26445 H 146.16778083027532 151.53540622099592 209.54766873269784 H 0.0 **** 0.06
26446 C 207.484189204782 26.50689383724952 62.00441985688954 C 0.0 **** -0.24
26447 H 207.28930273998492 26.506541272008775 63.07652165523035 H 0.0 **** 0.06
26448 H 207.86061896536845 25.528754139702187 61.7028248861877 H 0.0 **** 0.06
26449 H 208.2280719140251 27.269989283136084 61.77134685509958 H 0.0 **** 0.06
26450 H 206.5609371541858 26.722554382203725 61.46743819734681 H 0.0 **** 0.06
26451 C 39.44626541990803 19.68356839237299 153.84237066701854 C 0.0 **** -0.24
26452 H 40.03156854972332 18.78525011472061 154.04049352507712 H 0.0 **** 0.06
26453 H 39.24130756729349 19.75614950745029 152.77483454265507 H 0.0 **** 0.06
26454 H 40.00641943894442 20.561004570165267 154.16702953709665 H 0.0 **** 0.06
26455 H 38.50538777735103 19.630861371073195 154.39070849945728 H 0.0 **** 0.06
26456 C 32.16020011938511 106.99630521362162 152.28892666221157 C 0.0 **** -0.24
26457 H 32.6026711395958 107.93232102844236 151.9475603882296 H 0.0 **** 0.06
26458 H 31.613598844422626 107.16985230123292 153.21529029128146 H 0.0 **** 0.06
26459 H 32.94987515208035 106.26507584003674 152.46471659638144 H 0.0 **** 0.06
26460 H 31.478076646892447 106.6184912926504 151.52798163882954 H 0.0 **** 0.06
26461 C 210.494512876165 23.636117652707284 42.806246037727504 C 0.0 **** -0.24
26462 H 209.6288197416786 23.498090956032243 42.157877949864215 H 0.0 **** 0.06
26463 H 210.16411735355481 23.988017412319834 43.78330104462108 H 0.0 **** 0.06
26464 H 211.1664018382284 24.370998044725013 42.36336325332128 H 0.0 **** 0.06
26465 H 211.01757965280436 22.68662876954879 42.920022766885964 H 0.0 **** 0.06
26466 C 50.58808125429111 138.0497811721375 146.92843583048176 C 0.0 **** -0.24
26467 H 51.5577414490333 137.76348785543445 147.3358095914777 H 0.0 **** 0.06
26468 H 49.895009240196345 138.2475948089891 147.7463710917977 H 0.0 **** 0.06
26469 H 50.20034891196681 137.23969600969832 146.31039391882877 H 0.0 **** 0.06
26470 H 50.70137637792534 138.9477389206774 146.32109883004722 H 0.0 **** 0.06
26471 C 125.88909023776739 93.50509937258558 211.44779834724045 C 0.0 **** -0.24
26472 H 125.38429697846601 92.55040056010428 211.59704675395167 H 0.0 **** 0.06
26473 H 126.51579637110507 93.72230898178536 212.3127194670691 H 0.0 **** 0.06
26474 H 125.14695969411764 94.29397692966047 211.3286027975388 H 0.0 **** 0.06
26475 H 126.50941923172553 93.45147966420767 210.5529179030318 H 0.0 **** 0.06
26476 C 209.66374965906857 135.85517178374687 208.1667006015453 C 0.0 **** -0.24
26477 H 208.611718682444 135.62764181163288 207.99266875118929 H 0.0 **** 0.06
26478 H 209.74849457184297 136.58992131271373 208.9680648040753 H 0.0 **** 0.06
26479 H 210.10317795484423 136.25956584551483 207.25528558142923 H 0.0 **** 0.06
26480 H 210.19024373434632 134.9449397956556 208.4503021179199 H 0.0 **** 0.06
26481 C 131.8319728271847 136.25988601267113 18.94461306641186 C 0.0 **** -0.24
26482 H 131.78443346274696 135.1915846071028 18.73075733933159 H 0.0 **** 0.06
26483 H 131.61398532117823 136.8223055470367 18.0361787716285 H 0.0 **** 0.06
26484 H 132.8306900141406 136.51463115138108 19.298981558449896 H 0.0 **** 0.06
26485 H 131.10000882581488 136.50929375404866 19.711822679359912 H 0.0 **** 0.06
26486 C 100.39807115166123 44.747138814532946 203.47320343053582 C 0.0 **** -0.24
26487 H 99.81623214295747 45.41399873919386 204.10840680119557 H 0.0 **** 0.06
26488 H 101.20276526592194 45.30860709531237 202.99847520349053 H 0.0 **** 0.06
26489 H 99.75161929237662 44.31844089072956 202.7079223008564 H 0.0 **** 0.06
26490 H 100.82277764701756 43.94653119648041 204.07968672748217 H 0.0 **** 0.06
26491 C 98.6680605321568 202.48249875597588 157.90733853239925 C 0.0 **** -0.24
26492 H 99.30656246020851 202.29114569411777 158.77014931183516 H 0.0 **** 0.06
26493 H 98.21737324517431 201.54762927518573 157.57414015272667 H 0.0 **** 0.06
26494 H 99.26551608758228 202.90595511354064 157.10063493679087 H 0.0 **** 0.06
26495 H 97.8829315893745 203.1859766047312 158.1860025070123 H 0.0 **** 0.06
26496 C 130.12036216314777 92.10942968755752 108.57928464085768 C 0.0 **** -0.24
26497 H 129.12796452905087 92.26737313283034 109.00174048873151 H 0.0 **** 0.06
26498 H 130.03625257580438 91.51701896162278 107.66789599975817 H 0.0 **** 0.06
26499 H 130.7420811387903 91.58028924948603 109.30166546363569 H 0.0 **** 0.06
26500 H 130.57313118489435 93.07256352683864 108.34667222918449 H 0.0 **** 0.06
26501 C 131.1802112031006 162.59241775026214 112.67498985003776 C 0.0 **** -0.24
26502 H 131.69487807115445 161.69971229926188 113.03095633212673 H 0.0 **** 0.06
26503 H 131.21672454647154 162.62146451708776 111.58568309388416 H 0.0 **** 0.06
26504 H 131.66887806155933 163.4789634530776 113.07884198972793 H 0.0 **** 0.06
26505 H 130.14141905645505 162.56855718111444 113.00350876451016 H 0.0 **** 0.06
26506 C 92.50686081536078 116.99314416814082 214.37055069728663 C 0.0 **** -0.24
26507 H 93.4722886274876 117.04221810596897 213.8666359924831 H 0.0 **** 0.06
26508 H 91.7759719551333 117.57981412184893 213.81314779757383 H 0.0 **** 0.06
26509 H 92.60192091537819 117.39456296823255 215.3790181709047 H 0.0 **** 0.06
26510 H 92.17614519467462 115.95577503495247 214.42209288823537 H 0.0 **** 0.06
26511 C 70.76426221032284 25.746647054287735 42.102298757706365 C 0.0 **** -0.24
26512 H 71.82043943627349 25.980231599675363 41.96629481618453 H 0.0 **** 0.06
26513 H 70.27577781801 25.6974446520493 41.128559943942605 H 0.0 **** 0.06
26514 H 70.29625217295614 26.523959969929606 42.705196219609604 H 0.0 **** 0.06
26515 H 70.66712797890631 24.785757747274573 42.60652568928464 H 0.0 **** 0.06
26516 C 129.3121439587867 83.6723328861791 57.12027119658774 C 0.0 **** -0.24
26517 H 128.88097289596988 82.95486642740434 57.81702258577718 H 0.0 **** 0.06
26518 H 129.45374480300012 84.62912342562362 57.62436863440361 H 0.0 **** 0.06
26519 H 128.63910890061328 83.80397997517582 56.27188742475859 H 0.0 **** 0.06
26520 H 130.2743994959776 83.30220066309164 56.76672268178726 H 0.0 **** 0.06
26521 C 164.4672212441247 52.62453736031043 10.706846571170843 C 0.0 **** -0.24
26522 H 164.3676661458876 53.58382291429467 11.215314028110498 H 0.0 **** 0.06
26523 H 164.81429994125205 52.78868786904118 9.686613201671264 H 0.0 **** 0.06
26524 H 163.500462467506 52.12224835273781 10.686271235396248 H 0.0 **** 0.06
26525 H 165.18745656054142 52.00426792027986 11.241244422533015 H 0.0 **** 0.06
26526 C 214.91046167654372 205.07619012864032 21.564142630469064 C 0.0 **** -0.24
26527 H 215.2732360787836 205.7985854332611 20.83283975453999 H 0.0 **** 0.06
26528 H 215.1832954377823 204.06950582117858 21.247657908875325 H 0.0 **** 0.06
26529 H 213.82455670645538 205.15135594069113 21.64037042380643 H 0.0 **** 0.06
26530 H 215.3579088854577 205.28568846559605 22.534842660925023 H 0.0 **** 0.06
26531 C 120.62310302541992 211.86598127640232 207.21951502423838 C 0.0 **** -0.24
26532 H 120.03509830496428 212.4410528507041 206.5042246847803 H 0.0 **** 0.06
26533 H 121.16990425236104 211.08342366990746 206.69338372020638 H 0.0 **** 0.06
26534 H 119.95839624462904 211.41313325693926 207.9551315700073 H 0.0 **** 0.06
26535 H 121.32772756006462 212.52588635095537 207.72491653049798 H 0.0 **** 0.06
26536 C 94.6252274805182 83.373762423588 53.32515541118573 C 0.0 **** -0.24
26537 H 93.69931885815551 83.81835274818252 53.688594244032174 H 0.0 **** 0.06
26538 H 94.57414862665532 83.26421509079216 52.24172037623168 H 0.0 **** 0.06
26539 H 94.7608425223129 82.39303294479339 53.78318097689021 H 0.0 **** 0.06
26540 H 95.46456735412092 84.01705693658107 53.58750987872213 H 0.0 **** 0.06
26541 C 71.12122951784453 102.58919634955718 198.97081307595997 C 0.0 **** -0.24
26542 H 71.88795017394135 101.82289330234768 198.8541373628017 H 0.0 **** 0.06
26543 H 70.45124375779439 102.56626328212643 198.11168370131975 H 0.0 **** 0.06
26544 H 71.59387244991406 103.5686542237295 199.03843004547127 H 0.0 **** 0.06
26545 H 70.55202874936823 102.39694622673356 199.8812044973995 H 0.0 **** 0.06
26546 C 84.735814022885 6.042801194595114 160.12223475112904 C 0.0 **** -0.24
26547 H 84.75812048163516 5.6622088323269395 161.14368715956118 H 0.0 **** 0.06
26548 H 85.26670177763265 6.993304695325378 160.07784545630395 H 0.0 **** 0.06
26549 H 83.70115875837666 6.1882350129491215 159.81225633449955 H 0.0 **** 0.06
26550 H 85.21586461122331 5.325045147123944 159.45763952682393 H 0.0 **** 0.06
26551 C 162.64317625378382 110.63471750935823 8.570904247017054 C 0.0 **** -0.24
26552 H 163.20378025470748 111.23599423178344 9.285771068578015 H 0.0 **** 0.06
26553 H 162.7250324124722 111.07927259866754 7.57867015602713 H 0.0 **** 0.06
26554 H 161.59424073040296 110.60108555375102 8.86751732427426 H 0.0 **** 0.06
26555 H 163.0474897138086 109.62321310139906 8.550740492708911 H 0.0 **** 0.06
26556 C 103.18230081008825 155.9049578742359 27.187879510038 C 0.0 **** -0.24
26557 H 102.8729200357913 155.01606655348468 26.63863103881104 H 0.0 **** 0.06
26558 H 103.03062636435466 155.74238612921016 28.255439084069096 H 0.0 **** 0.06
26559 H 102.5873020608745 156.7577466164733 26.86245368058772 H 0.0 **** 0.06
26560 H 104.23658069549292 156.10195633612523 26.995204512580997 H 0.0 **** 0.06
26561 C 94.7243460256522 6.143566839062515 1.9311871596536605 C 0.0 **** -0.24
26562 H 95.01507916648019 6.311062406721817 2.9680808890068704 H 0.0 **** 0.06
26563 H 95.10810351591606 6.954273171442281 1.3111366917148217 H 0.0 **** 0.06
26564 H 93.6373366875073 6.114558709848211 1.8593376276196736 H 0.0 **** 0.06
26565 H 95.13633237579212 5.195548619543757 1.5867719708008394 H 0.0 **** 0.06
26566 C 186.7601180246949 129.0328133064952 152.6519318577898 C 0.0 **** -0.24
26567 H 187.28549047016608 129.94421184510156 152.935969920596 H 0.0 **** 0.06
26568 H 187.4841575938998 128.2735909236727 152.35540829992368 H 0.0 **** 0.06
26569 H 186.09214708943873 129.24420526966657 151.81730955193223 H 0.0 **** 0.06
26570 H 186.1785035917009 128.6698206463489 153.500319826507 H 0.0 **** 0.06
26571 C 194.33541265872793 138.7906263336775 29.90130280842726 C 0.0 **** -0.24
26572 H 194.58112828896037 137.75099197762023 29.685714393838794 H 0.0 **** 0.06
26573 H 193.58217525565954 139.13885433847412 29.19439417774322 H 0.0 **** 0.06
26574 H 195.23314994683392 139.40240837676686 29.808218744070814 H 0.0 **** 0.06
26575 H 193.94689659328134 138.8691146065289 30.9159776185507 H 0.0 **** 0.06
26576 C 33.15456871583007 132.3234941675808 121.18820150639222 C 0.0 **** -0.24
26577 H 33.30525818770792 133.3738500201706 120.93846883659951 H 0.0 **** 0.06
26578 H 32.25288008153376 131.9591097555035 120.69698594589518 H 0.0 **** 0.06
26579 H 33.04870365284745 132.2190194480923 122.26782123170558 H 0.0 **** 0.06
26580 H 34.013246394407275 131.74318966654232 120.84899141706255 H 0.0 **** 0.06
26581 C 26.148736173485474 21.62888001587413 120.06213558314288 C 0.0 **** -0.24
26582 H 26.01155403147257 22.696003008091765 120.23970453589094 H 0.0 **** 0.06
26583 H 26.078350100162282 21.4274922863502 118.99370032438439 H 0.0 **** 0.06
26584 H 25.374586083009774 21.07055836398689 120.58957347151276 H 0.0 **** 0.06
26585 H 27.12886795534004 21.32337353875016 120.42692264659492 H 0.0 **** 0.06
26586 C 174.79521092376453 57.97006702623695 15.049074820421481 C 0.0 **** -0.24
26587 H 174.11489879973203 57.870463584227494 14.202934929510377 H 0.0 **** 0.06
26588 H 175.74707444805733 57.497963200600026 14.806342578559452 H 0.0 **** 0.06
26589 H 174.3608110301623 57.48498989849702 15.923668476384478 H 0.0 **** 0.06
26590 H 174.95664225065838 59.026285944694465 15.262533586339003 H 0.0 **** 0.06
26591 C 201.83015416845674 118.4313325486683 194.27450689090375 C 0.0 **** -0.24
26592 H 201.5164134821583 117.54287962190078 193.72629952237375 H 0.0 **** 0.06
26593 H 202.7446093348769 118.21178032408112 194.82747048961528 H 0.0 **** 0.06
26594 H 201.04520217589794 118.72394234069726 194.97101532241587 H 0.0 **** 0.06
26595 H 202.01592047817138 119.24484982260792 193.57361057125317 H 0.0 **** 0.06
26596 C 114.77372936558471 207.95923049544194 174.27719269721305 C 0.0 **** -0.24
26597 H 115.1097575783155 208.87599677356565 173.7915860800597 H 0.0 **** 0.06
26598 H 115.57320254758535 207.56801717857127 174.90633171781766 H 0.0 **** 0.06
26599 H 114.51249528726233 207.22147755088488 173.51869122624947 H 0.0 **** 0.06
26600 H 113.89961853597309 208.17436063741346 174.89153739736054 H 0.0 **** 0.06
26601 C 67.35970622354789 216.33600465252576 54.75115668630525 C 0.0 **** -0.24
26602 H 68.23838524161701 216.20178009350815 54.121877691398424 H 0.0 **** 0.06
26603 H 67.41611995760593 217.3023066189803 55.25269546148559 H 0.0 **** 0.06
26604 H 67.32119566438269 215.54180163062898 55.49691310662422 H 0.0 **** 0.06
26605 H 66.46202591283 216.2976250119487 54.13387457606103 H 0.0 **** 0.06
26606 C 108.42890221593349 173.41429056834025 188.12182421389866 C 0.0 **** -0.24
26607 H 108.32000534897257 172.9101498781098 189.08169595588723 H 0.0 **** 0.06
26608 H 108.74227558350681 172.69347268732224 187.36644625802748 H 0.0 **** 0.06
26609 H 109.17938696964386 174.20005943592918 188.20778965433573 H 0.0 **** 0.06
26610 H 107.47480934171993 173.85431748018786 187.83210325039553 H 0.0 **** 0.06
26611 C 159.83716799336747 50.73930883990289 193.31335416650478 C 0.0 **** -0.24
26612 H 159.6113475384143 51.70730225889082 192.86504064379608 H 0.0 **** 0.06
26613 H 160.8213382387102 50.77669847413506 193.78025252597104 H 0.0 **** 0.06
26614 H 159.82954431448724 49.971170662458405 192.54117042733594 H 0.0 **** 0.06
26615 H 159.08601697508675 50.504800838999415 194.06752674631701 H 0.0 **** 0.06
26616 C 94.61799951831098 139.59708210781497 84.3782378674249 C 0.0 **** -0.24
26617 H 93.98807480318486 138.97456625899468 85.01315281984853 H 0.0 **** 0.06
26618 H 95.0967851136427 140.3664530966496 84.98394387776744 H 0.0 **** 0.06
26619 H 94.00519781940561 140.0683084765028 83.60926911816836 H 0.0 **** 0.06
26620 H 95.38102462076479 138.97753777454125 83.90643848436474 H 0.0 **** 0.06
26621 C 83.13892132673077 200.764901516371 202.65714764614359 C 0.0 **** -0.24
26622 H 82.90366055659014 199.70650457844022 202.54513680560314 H 0.0 **** 0.06
26623 H 82.67059877492527 201.32799460291503 201.8491957178805 H 0.0 **** 0.06
26624 H 84.2192762037305 200.90259495623445 202.6178413398919 H 0.0 **** 0.06
26625 H 82.76205080984143 201.12173740506202 203.61579195093194 H 0.0 **** 0.06
26626 C 47.64123446958013 198.80588675132788 179.58666843387095 C 0.0 **** -0.24
26627 H 47.21156270280592 199.8071603396836 179.5841199033378 H 0.0 **** 0.06
26628 H 48.23327770142416 198.6627737270826 178.68306863297215 H 0.0 **** 0.06
26629 H 46.84070689306894 198.06724506450774 179.61703587995504 H 0.0 **** 0.06
26630 H 48.27939058102153 198.68636787403747 180.46244931921893 H 0.0 **** 0.06
26631 C 88.94540971563765 140.73951731407504 20.263111822651013 C 0.0 **** -0.24
26632 H 89.43989788905833 140.70440601925083 19.29254767024048 H 0.0 **** 0.06
26633 H 89.2838741299094 139.90269544396972 20.873424137140006 H 0.0 **** 0.06
26634 H 87.8667416847124 140.67435406622963 20.123465294667994 H 0.0 **** 0.06
26635 H 89.1907630998603 141.67733308611764 20.761847661388288 H 0.0 **** 0.06
26636 C 189.88799403828665 77.18902146126504 197.41203520777714 C 0.0 **** -0.24
26637 H 190.92612801591866 76.98964661158158 197.14359960161144 H 0.0 **** 0.06
26638 H 189.85203648913185 77.67591269282673 198.38602704631356 H 0.0 **** 0.06
26639 H 189.33728771611231 76.24877507870718 197.454701838856 H 0.0 **** 0.06
26640 H 189.4377118408821 77.83990264547873 196.6617700655355 H 0.0 **** 0.06
26641 C 77.10156971617714 67.99905141124418 86.5444801242851 C 0.0 **** -0.24
26642 H 76.4268801089233 67.2768636914323 87.00279436803565 H 0.0 **** 0.06
26643 H 78.04906870901486 67.51313339101235 86.3105838205342 H 0.0 **** 0.06
26644 H 77.276994513362 68.82249093254403 87.23619872196285 H 0.0 **** 0.06
26645 H 76.65434913608588 68.38417581579996 85.62747025432738 H 0.0 **** 0.06
26646 C 196.61987020154226 123.01533904549485 135.88630910594281 C 0.0 **** -0.24
26647 H 195.9516958685595 123.15233718857381 136.73709740072007 H 0.0 **** 0.06
26648 H 197.51955412350932 122.4931400519762 136.21285956069056 H 0.0 **** 0.06
26649 H 196.89207767725685 123.98784324685327 135.47737783061558 H 0.0 **** 0.06
26650 H 196.11639570629362 122.42597547150369 135.12067595046125 H 0.0 **** 0.06
26651 C 103.12789880355335 16.38075151652255 110.11776335818386 C 0.0 **** -0.24
26652 H 102.2948266260684 16.879228583089997 110.61271132213004 H 0.0 **** 0.06
26653 H 103.33343383315018 15.434412602249466 110.6186706928287 H 0.0 **** 0.06
26654 H 104.01197769262468 17.015695849012374 110.16458567691966 H 0.0 **** 0.06
26655 H 102.87042973741204 16.192280341097728 109.07554580343246 H 0.0 **** 0.06
26656 C 1.2181817242565884 136.85770904564072 80.02469906268021 C 0.0 **** -0.24
26657 H 2.1801536141467395 137.32650983650643 79.8151613462515 H 0.0 **** 0.06
26658 H 0.41358621323101374 137.523377448965 79.71101484185323 H 0.0 **** 0.06
26659 H 1.1345204760357888 136.66364873778576 81.09415478128903 H 0.0 **** 0.06
26660 H 1.1452904900164924 135.91776860382532 79.47814626503094 H 0.0 **** 0.06
26661 C 11.58021302333843 100.99590249697015 69.03439005387627 C 0.0 **** -0.24
26662 H 10.581999295546439 100.55834505711574 69.07556045847335 H 0.0 **** 0.06
26663 H 12.135796494693892 100.5521736942833 68.20786243601694 H 0.0 **** 0.06
26664 H 12.101768523511808 100.79882320524503 69.9701991819535 H 0.0 **** 0.06
26665 H 11.498809887504436 102.07204862432211 68.88222509469914 H 0.0 **** 0.06
26666 C 175.7039191305496 197.13852059763877 181.0586730433056 C 0.0 **** -0.24
26667 H 176.02943341552646 196.11385416206912 180.87817293479665 H 0.0 **** 0.06
26668 H 175.0990220032096 197.1733349524843 181.96544235449846 H 0.0 **** 0.06
26669 H 175.11075399584274 197.485623237887 180.21239411545622 H 0.0 **** 0.06
26670 H 176.57683381702725 197.78041936537045 181.1783060762338 H 0.0 **** 0.06
26671 C 109.97809768546556 52.97009984769764 201.4558313938697 C 0.0 **** -0.24
26672 H 110.4238925884196 52.13522025161308 200.91658277326462 H 0.0 **** 0.06
26673 H 110.29339492354946 53.90814069990347 200.99959555854977 H 0.0 **** 0.06
26674 H 110.30283877881398 52.94446443688298 202.49618286835883 H 0.0 **** 0.06
26675 H 108.89165461927293 52.89148834215678 201.41282166681967 H 0.0 **** 0.06
26676 C 215.79342992487804 151.993421314579 103.82534669331996 C 0.0 **** -0.24
26677 H 216.11200845840594 151.3151309551069 104.61675306134585 H 0.0 **** 0.06
26678 H 216.46848912768195 152.8491639204799 103.78668372110714 H 0.0 **** 0.06
26679 H 214.77969522507382 152.3378979942397 104.02781866405358 H 0.0 **** 0.06
26680 H 215.81483627135546 151.47015304117105 102.8689099547371 H 0.0 **** 0.06
26681 C 48.97594339310483 101.6679193596406 188.8348565027194 C 0.0 **** -0.24
26682 H 49.04977974566502 101.86276876943926 189.90399026864924 H 0.0 **** 0.06
26683 H 47.9797435417633 101.93682110390874 188.4836616222613 H 0.0 **** 0.06
26684 H 49.15456399459306 100.60982313315726 188.64488496872434 H 0.0 **** 0.06
26685 H 49.72125842087206 102.26293201663391 188.305133349916 H 0.0 **** 0.06
26686 C 215.81975139584875 7.047383780467783 86.73582062212239 C 0.0 **** -0.24
26687 H 216.82650412089873 7.005233852478568 87.15113431793793 H 0.0 **** 0.06
26688 H 215.4668549137176 8.078753801574976 86.74482579655484 H 0.0 **** 0.06
26689 H 215.1525585361419 6.430212649172972 87.33726190256135 H 0.0 **** 0.06
26690 H 215.83349865178707 6.676519692807233 85.71071429297461 H 0.0 **** 0.06
26691 C 57.47647968110681 19.71807872889849 182.37775882255045 C 0.0 **** -0.24
26692 H 57.265281287324115 20.151006224272606 183.3555472244302 H 0.0 **** 0.06
26693 H 56.68209720744409 19.987588532294865 181.68168979610695 H 0.0 **** 0.06
26694 H 57.53017796439275 18.6320210440349 182.4660841973652 H 0.0 **** 0.06
26695 H 58.428715315352946 20.099510559129726 182.0099692326852 H 0.0 **** 0.06
26696 C 124.34976783891885 20.923763734405824 152.04922698316255 C 0.0 **** -0.24
26697 H 124.08554798788238 20.798722256648702 153.09980380269008 H 0.0 **** 0.06
26698 H 123.48066298514793 21.283274304567968 151.4979529620149 H 0.0 **** 0.06
26699 H 124.67067079409902 19.96640110412116 151.6400519539231 H 0.0 **** 0.06
26700 H 125.15979263846073 21.64692521964217 151.96244333163872 H 0.0 **** 0.06
26701 C 168.54108427761625 56.63536086182704 179.15401204975092 C 0.0 **** -0.24
26702 H 168.93966223537055 55.92453773213252 178.4303814665137 H 0.0 **** 0.06
26703 H 169.1110691178904 57.56299607049634 179.10389883050857 H 0.0 **** 0.06
26704 H 168.61788126943236 56.21426475963443 180.15594888128638 H 0.0 **** 0.06
26705 H 167.49509945419464 56.83860545791974 178.92509172558505 H 0.0 **** 0.06
26706 C 194.18204217413265 71.92718540531673 119.01105676053497 C 0.0 **** -0.24
26707 H 194.84384917222513 72.65128557908317 118.53743291472846 H 0.0 **** 0.06
26708 H 193.48677146308864 71.5318908629895 118.27093110316964 H 0.0 **** 0.06
26709 H 193.62391164246208 72.41352986799454 119.81153194549826 H 0.0 **** 0.06
26710 H 194.77407510874565 71.11094749703416 119.4262348371782 H 0.0 **** 0.06
26711 C 202.6536670257699 200.2676958196992 88.95125232777328 C 0.0 **** -0.24
26712 H 202.6474131125116 201.2309283372295 89.46124069991346 H 0.0 **** 0.06
26713 H 201.72722822593158 199.7353805574869 89.16909806545165 H 0.0 **** 0.06
26714 H 203.50162315348598 199.67831047621536 89.29731796634071 H 0.0 **** 0.06
26715 H 202.73695203740283 200.42677239663493 87.87547567321887 H 0.0 **** 0.06
26716 C 173.49825371558234 45.33141722917476 62.60338666613319 C 0.0 **** -0.24
26717 H 173.0857997947125 44.46006120523512 63.11089583821638 H 0.0 **** 0.06
26718 H 173.46484995085007 46.19157811002796 63.272348242747455 H 0.0 **** 0.06
26719 H 172.9102360628607 45.5415529041304 61.70934394118089 H 0.0 **** 0.06
26720 H 174.5317824505297 45.131232328909704 62.31887741316251 H 0.0 **** 0.06
26721 C 95.57805692049449 139.17437439373765 175.63709696769536 C 0.0 **** -0.24
26722 H 95.21813986703758 139.21268149539947 174.60913470638812 H 0.0 **** 0.06
26723 H 94.90936935119116 138.55275211126406 176.23335934779672 H 0.0 **** 0.06
26724 H 95.6038048066235 140.18184764823536 176.05132131511505 H 0.0 **** 0.06
26725 H 96.5818307056036 138.7483070431067 175.65528927786272 H 0.0 **** 0.06
26726 C 150.0796840380542 195.91941843589046 90.5069278141293 C 0.0 **** -0.24
26727 H 149.4374991104965 195.16809090193811 90.96777009950905 H 0.0 **** 0.06
26728 H 150.82605156179693 195.42542639134905 89.88334017195204 H 0.0 **** 0.06
26729 H 150.57982557136285 196.49648977451665 91.28529872115762 H 0.0 **** 0.06
26730 H 149.47506979996342 196.5863728115189 89.89179398153162 H 0.0 **** 0.06
26731 C 78.43034302649075 26.612097524109487 172.88015649181233 C 0.0 **** -0.24
26732 H 77.65803256793059 27.157417393002902 173.42267371168683 H 0.0 **** 0.06
26733 H 77.98481562487324 26.107200605360816 172.02342633555753 H 0.0 **** 0.06
26734 H 78.88484703015705 25.873388078845153 173.54133999529256 H 0.0 **** 0.06
26735 H 79.1931741507292 27.309722081660368 172.5358894843121 H 0.0 **** 0.06
26736 C 125.26591465869494 98.59739879504833 138.41657797102164 C 0.0 **** -0.24
26737 H 126.19316976630454 98.02806224470324 138.34622878517888 H 0.0 **** 0.06
26738 H 124.91978782975285 98.85175081966803 137.41454682861092 H 0.0 **** 0.06
26739 H 125.443658984658 99.51079076188019 138.98325970497314 H 0.0 **** 0.06
26740 H 124.50904001288096 97.99651312832025 138.92134557403853 H 0.0 **** 0.06
26741 C 45.255682562187204 143.04592463872677 49.673378262630195 C 0.0 **** -0.24
26742 H 44.740931631546815 143.24538259325993 50.61279996040366 H 0.0 **** 0.06
26743 H 44.53017518664687 143.02547638959805 48.85905947728128 H 0.0 **** 0.06
26744 H 45.76148681244253 142.08170130030902 49.734078923006734 H 0.0 **** 0.06
26745 H 45.98880459823873 143.8308050555139 49.48723598066158 H 0.0 **** 0.06
26746 C 111.46680949015759 92.08109367900853 160.67718703164581 C 0.0 **** -0.24
26747 H 111.86681250934261 91.20399777741657 160.16849606445814 H 0.0 **** 0.06
26748 H 110.77987690110349 92.60504795526869 160.01250539890597 H 0.0 **** 0.06
26749 H 112.28466641647945 92.74613818545838 160.95237600097704 H 0.0 **** 0.06
26750 H 110.93506667582285 91.76814918721279 161.5758707717662 H 0.0 **** 0.06
26751 C 129.78745324724395 28.01880744522532 65.40566596603554 C 0.0 **** -0.24
26752 H 128.95986787648752 28.131414265797673 66.10575688012906 H 0.0 **** 0.06
26753 H 129.41308097760896 27.627028203348345 64.46020916829687 H 0.0 **** 0.06
26754 H 130.52216912070094 27.32829374132399 65.82059916338443 H 0.0 **** 0.06
26755 H 130.25559358151952 28.988822050831573 65.23835359779724 H 0.0 **** 0.06
26756 C 141.78087801573105 42.3027598124619 70.40508384480125 C 0.0 **** -0.24
26757 H 142.7860155202651 42.01507126522917 70.71096945824297 H 0.0 **** 0.06
26758 H 141.12056077956476 41.436668803802036 70.46340771012518 H 0.0 **** 0.06
26759 H 141.80537239700925 42.67232072730283 69.37971859293293 H 0.0 **** 0.06
26760 H 141.41056172846498 43.086937128148364 71.06524209688178 H 0.0 **** 0.06
26761 C 117.56961401581502 4.300856408659854 15.441317913473881 C 0.0 **** -0.24
26762 H 117.94593746663226 4.7343310365939715 14.514650472500065 H 0.0 **** 0.06
26763 H 118.10870014108401 4.729209364287783 16.287515329159845 H 0.0 **** 0.06
26764 H 117.71959982241567 3.221573553220253 15.424468449252913 H 0.0 **** 0.06
26765 H 116.50625325695857 4.518929228781076 15.53932951914382 H 0.0 **** 0.06
26766 C 50.190331811270966 46.09953035206054 205.08201775635845 C 0.0 **** -0.24
26767 H 50.49994202794528 45.551929340830725 205.97154558838753 H 0.0 **** 0.06
26768 H 49.59266139510575 46.96219283295456 205.3756870371654 H 0.0 **** 0.06
26769 H 49.59704307441024 45.44689815720956 204.4410670247162 H 0.0 **** 0.06
26770 H 51.07254125331298 46.436970885526875 204.53748168484384 H 0.0 **** 0.06
26771 C 89.81444872429215 19.66730276797159 43.413462703348046 C 0.0 **** -0.24
26772 H 88.91776139530732 20.28324284558181 43.34036138409846 H 0.0 **** 0.06
26773 H 90.57026394107113 20.19257126764171 43.996731496890334 H 0.0 **** 0.06
26774 H 90.20018507299137 19.46927093805749 42.41308476900275 H 0.0 **** 0.06
26775 H 89.56834009597914 18.72471928936801 43.90100864210905 H 0.0 **** 0.06
26776 C 53.33274324885903 68.00101726026627 6.848927569393595 C 0.0 **** -0.24
26777 H 52.42432828868738 67.44346571925927 6.6183897308220025 H 0.0 **** 0.06
26778 H 54.17888487012101 67.54531061487664 6.334014025268914 H 0.0 **** 0.06
26779 H 53.507809018139014 67.97927578313862 7.924457400488734 H 0.0 **** 0.06
26780 H 53.21909342458136 69.0340205857027 6.519377888118527 H 0.0 **** 0.06
26781 C 156.6537389285151 43.73740154950427 167.3596392056958 C 0.0 **** -0.24
26782 H 156.6027387546598 42.84477828059862 166.73714519130635 H 0.0 **** 0.06
26783 H 157.69813567545282 43.992661713371945 167.54160578553885 H 0.0 **** 0.06
26784 H 156.1550997167938 43.547229086966 168.30948892505114 H 0.0 **** 0.06
26785 H 156.16125426687483 44.564768020795114 166.84941895422918 H 0.0 **** 0.06
26786 C 176.73621178146877 153.61006985979498 130.98929319685305 C 0.0 **** -0.24
26787 H 176.66711827705637 153.4031030065816 129.92095431781462 H 0.0 **** 0.06
26788 H 177.75881964053582 153.89226796121255 131.238432763054 H 0.0 **** 0.06
26789 H 176.45800437092362 152.71824138049266 131.55071615181015 H 0.0 **** 0.06
26790 H 176.060785005065 154.42626044187313 131.24427305470925 H 0.0 **** 0.06
26791 C 2.747164623640991 148.10387318452587 75.86816185618108 C 0.0 **** -0.24
26792 H 3.495861175456561 148.4496265613526 75.1551736247468 H 0.0 **** 0.06
26793 H 2.0140056291275314 147.4832905813056 75.35325093912076 H 0.0 **** 0.06
26794 H 2.2478640765086553 148.96387662953708 76.31430552395835 H 0.0 **** 0.06
26795 H 3.2333401755438587 147.52012540951347 76.65029804476137 H 0.0 **** 0.06
26796 C 3.764445745356568 114.84607245160454 184.03166212815324 C 0.0 **** -0.24
26797 H 2.7065810788921567 114.89191593639548 184.2888115895468 H 0.0 **** 0.06
26798 H 3.8972061332181056 114.21172775083231 183.15513453568977 H 0.0 **** 0.06
26799 H 4.323327699055881 114.42974185657299 184.86980825816903 H 0.0 **** 0.06
26800 H 4.129257228130996 115.84920727630212 183.81253378676297 H 0.0 **** 0.06
26801 C 132.23636253432812 158.85274405740125 106.4820141157711 C 0.0 **** -0.24
26802 H 131.57276568890381 159.7132839302913 106.39901721780139 H 0.0 **** 0.06
26803 H 131.70181370554798 158.02644637211665 106.95179687440493 H 0.0 **** 0.06
26804 H 133.1012161841511 159.117768854199 107.08922918318261 H 0.0 **** 0.06
26805 H 132.56822752210553 158.55256809397787 105.488383828382 H 0.0 **** 0.06
26806 C 13.845833984849875 59.512889926608125 100.39285174563075 C 0.0 **** -0.24
26807 H 14.103448858582183 59.46133842895475 99.33516599355873 H 0.0 **** 0.06
26808 H 13.645885003224677 58.50927401036779 100.76754979199988 H 0.0 **** 0.06
26809 H 12.957030161029138 60.13173464732881 100.52001356440717 H 0.0 **** 0.06
26810 H 14.674498330857944 59.95090955135953 100.94863347923292 H 0.0 **** 0.06
26811 C 181.3705893963749 53.04008036816947 6.516726565359875 C 0.0 **** -0.24
26812 H 182.22733689974683 53.138125914368715 7.1841461781475004 H 0.0 **** 0.06
26813 H 181.43059403201897 52.0898087072171 5.986514961725504 H 0.0 **** 0.06
26814 H 181.37576734930192 53.85870076851498 5.7970773696389415 H 0.0 **** 0.06
26815 H 180.45107664369925 53.07365342570287 7.099562094529517 H 0.0 **** 0.06
26816 C 191.33011261660667 116.7408993528993 56.533325878335404 C 0.0 **** -0.24
26817 H 192.2931993335219 116.2337376548935 56.59043212031679 H 0.0 **** 0.06
26818 H 191.25126136456706 117.4629590098362 57.346439941292374 H 0.0 **** 0.06
26819 H 190.52774741819587 116.00753595359504 56.61982655121551 H 0.0 **** 0.06
26820 H 191.24743809536486 117.25801467957007 55.578195639964406 H 0.0 **** 0.06
26821 C 166.22698133430913 118.72178233656535 146.38243707227548 C 0.0 **** -0.24
26822 H 166.881792830751 118.84857082835623 145.52036995329723 H 0.0 **** 0.06
26823 H 165.571209204216 119.58834511744936 146.4711839562247 H 0.0 **** 0.06
26824 H 166.8305662831903 118.62902389633888 147.2861362717565 H 0.0 **** 0.06
26825 H 165.6261176809598 117.8227804957587 146.25266549322924 H 0.0 **** 0.06
26826 C 140.75979735754544 16.613064062647524 54.08271115729002 C 0.0 **** -0.24
26827 H 140.6167357529589 15.756811839017232 53.424487317714636 H 0.0 **** 0.06
26828 H 141.49495155390758 17.289207457539945 53.644933161516974 H 0.0 **** 0.06
26829 H 141.11501237602192 16.2684931946621 55.05409900516668 H 0.0 **** 0.06
26830 H 139.8124897472934 17.13774375937085 54.207325144761796 H 0.0 **** 0.06
26831 C 209.69898706132375 150.07958704275018 33.257736427388636 C 0.0 **** -0.24
26832 H 209.16353077302514 149.97653585492048 32.31308666177176 H 0.0 **** 0.06
26833 H 208.98654589881687 150.06718775805547 34.082007601340365 H 0.0 **** 0.06
26834 H 210.2468988994945 151.02199382549912 33.26367062232231 H 0.0 **** 0.06
26835 H 210.3991073371638 149.25112786255403 33.369401720459166 H 0.0 **** 0.06
26836 C 169.8816689064539 143.96964994585085 166.57793545954507 C 0.0 **** -0.24
26837 H 169.97582737560862 143.94281824383518 165.49241789807462 H 0.0 **** 0.06
26838 H 168.96175850079658 144.48744872914432 166.8501603817228 H 0.0 **** 0.06
26839 H 170.7354136443107 144.49804596994937 167.00320562673954 H 0.0 **** 0.06
26840 H 169.85430666348827 142.95155270123593 166.96595277897524 H 0.0 **** 0.06
26841 C 198.00816505743947 32.90051304299351 37.63046476995392 C 0.0 **** -0.24
26842 H 198.48691958340612 32.56785662590357 38.55128068153968 H 0.0 **** 0.06
26843 H 196.9267726600174 32.80259839828875 37.72899573983368 H 0.0 **** 0.06
26844 H 198.35441702228817 32.28759648273984 36.798310335623526 H 0.0 **** 0.06
26845 H 198.26381541139375 33.94369344949041 37.44481005873446 H 0.0 **** 0.06
26846 C 141.2051008048167 211.42734355968253 13.806404998626633 C 0.0 **** -0.24
26847 H 141.13297629699184 210.34055845001703 13.853620724192766 H 0.0 **** 0.06
26848 H 141.49172123149663 211.81528807232237 14.783663365552755 H 0.0 **** 0.06
26849 H 140.24044915700807 211.84350466544151 13.517601859873409 H 0.0 **** 0.06
26850 H 141.9577086862286 211.70857895917885 13.068520051298222 H 0.0 **** 0.06
26851 C 115.62721996283138 199.53504431441587 185.24698881554878 C 0.0 **** -0.24
26852 H 115.70485269904988 199.4303938334807 186.3290953578531 H 0.0 **** 0.06
26853 H 114.59025795213428 199.39710647035946 184.94225932809252 H 0.0 **** 0.06
26854 H 116.25229988229087 198.78344447452108 184.7647140872603 H 0.0 **** 0.06
26855 H 115.96394292913563 200.5294108746132 184.9535745573715 H 0.0 **** 0.06
26856 C 80.18250188141684 83.16217887264843 53.31775474070372 C 0.0 **** -0.24
26857 H 80.62783909890777 82.27685484703987 52.86299185398417 H 0.0 **** 0.06
26858 H 79.13916802482737 83.24065853182712 53.01062844878112 H 0.0 **** 0.06
26859 H 80.72482714874235 84.04963536107799 52.99315436396938 H 0.0 **** 0.06
26860 H 80.23716167168072 83.0793454173771 54.402815129561475 H 0.0 **** 0.06
26861 C 33.678705970019024 45.89452483832437 115.34110538520999 C 0.0 **** -0.24
26862 H 34.14918016589053 45.194668628831124 116.03187774804009 H 0.0 **** 0.06
26863 H 33.183433258181424 46.68433725213481 115.90576672249624 H 0.0 **** 0.06
26864 H 32.94486694858989 45.36652700193997 114.73239551390081 H 0.0 **** 0.06
26865 H 34.43949603122303 46.33236947214209 114.69380891542694 H 0.0 **** 0.06
26866 C 65.61428512100304 57.346443408751014 199.7543278767269 C 0.0 **** -0.24
26867 H 65.41981069656461 58.29636418740647 199.2551171287949 H 0.0 **** 0.06
26868 H 66.39889059429214 57.48203438321116 200.49845385329863 H 0.0 **** 0.06
26869 H 65.93404973525674 56.60927724747923 199.0179999780327 H 0.0 **** 0.06
26870 H 64.70399502152873 57.00040863622924 200.24339433271442 H 0.0 **** 0.06
26871 C 84.72812022841869 102.82393496073009 154.3337334526442 C 0.0 **** -0.24
26872 H 84.13762308715657 101.90780061583511 154.3014512491004 H 0.0 **** 0.06
26873 H 84.64561561827897 103.34098906854432 153.3773981630203 H 0.0 **** 0.06
26874 H 85.77165834515803 102.57662770602813 154.52492558991997 H 0.0 **** 0.06
26875 H 84.35505914444819 103.46802617134544 155.12962481834364 H 0.0 **** 0.06
26876 C 172.15289039313706 119.07719396160785 35.74822893776866 C 0.0 **** -0.24
26877 H 172.95787172419531 118.90752844846178 35.03306475430621 H 0.0 **** 0.06
26878 H 171.23825952446666 119.33046479015091 35.21118106715977 H 0.0 **** 0.06
26879 H 172.42347000570234 119.89811653142284 36.41180103884099 H 0.0 **** 0.06
26880 H 171.99136235589367 118.17350555456493 36.33515489388948 H 0.0 **** 0.06
26881 C 199.30506134736405 198.02942057698 1.963689798501548 C 0.0 **** -0.24
26882 H 199.2173864127174 198.7962904012641 1.1927527392710147 H 0.0 **** 0.06
26883 H 199.98396398393902 198.37495727754387 2.7442926177522224 H 0.0 **** 0.06
26884 H 199.69685828772913 197.113786156564 1.5202781284302205 H 0.0 **** 0.06
26885 H 198.32340087123688 197.83387236062612 2.395060566202716 H 0.0 **** 0.06
26886 C 65.79880859583056 40.84034334517513 45.949881751034184 C 0.0 **** -0.24
26887 H 66.8795547386 40.95706872089178 45.86874544468793 H 0.0 **** 0.06
26888 H 65.46043764350566 40.086229406338916 45.23847861465822 H 0.0 **** 0.06
26889 H 65.31351607311893 41.79120933066986 45.72986770378 H 0.0 **** 0.06
26890 H 65.54169499292561 40.526199787673534 46.96118810793564 H 0.0 **** 0.06
26891 C 167.88187325229558 198.85833164786152 204.51306967117125 C 0.0 **** -0.24
26892 H 168.64745592640168 199.16299957909703 203.799892450369 H 0.0 **** 0.06
26893 H 167.18553706855673 198.17385299623894 204.02836560139312 H 0.0 **** 0.06
26894 H 167.34326764008404 199.73784801345505 204.8649135038095 H 0.0 **** 0.06
26895 H 168.3535692317728 198.35896974856092 205.35975600263643 H 0.0 **** 0.06
26896 C 152.6601056879395 22.489950783714804 169.29234786344338 C 0.0 **** -0.24
26897 H 153.63682381207076 22.653270216659223 169.7473628065917 H 0.0 **** 0.06
26898 H 152.27907471874397 21.513469654897094 169.59027760580645 H 0.0 **** 0.06
26899 H 152.7539421575629 22.528292389576237 168.20667489728712 H 0.0 **** 0.06
26900 H 151.9703910061848 23.266073380103208 169.6245594157413 H 0.0 **** 0.06
26901 C 32.21847945040301 151.24803009984345 38.9502101289917 C 0.0 **** -0.24
26902 H 31.440511243951875 150.48443702526163 38.96813306977248 H 0.0 **** 0.06
26903 H 32.70264402852544 151.25060818539475 37.973112810895145 H 0.0 **** 0.06
26904 H 32.95700172560899 151.03142660290933 39.72169175603386 H 0.0 **** 0.06
26905 H 31.772307873586556 152.2249305241961 39.13636227326168 H 0.0 **** 0.06
26906 C 21.96187559756325 12.633497803373317 154.88431172556415 C 0.0 **** -0.24
26907 H 22.14427023699841 12.941728058937684 155.91366659020474 H 0.0 **** 0.06
26908 H 22.15940301043952 13.47082043132518 154.21415137621335 H 0.0 **** 0.06
26909 H 20.923010387360932 12.319745287157161 154.7777913709417 H 0.0 **** 0.06
26910 H 22.619994327640313 11.801978275646405 154.63212895563987 H 0.0 **** 0.06
26911 C 115.08184034106733 43.89827709112433 31.843435116974476 C 0.0 **** -0.24
26912 H 115.39911299138498 43.96584985284075 30.803048114008575 H 0.0 **** 0.06
26913 H 115.85149375717583 43.3907800745049 32.42549228268496 H 0.0 **** 0.06
26914 H 114.14995189330745 43.33569855621165 31.90314655625515 H 0.0 **** 0.06
26915 H 114.92677300130066 44.90153051546935 32.24139345327896 H 0.0 **** 0.06
26916 C 125.12612614828 201.39057260037436 197.64367782393157 C 0.0 **** -0.24
26917 H 124.05097087389255 201.56823222430785 197.685311346216 H 0.0 **** 0.06
26918 H 125.43302861726254 201.26573261413938 196.6049507184634 H 0.0 **** 0.06
26919 H 125.36611663620154 200.48768084869403 198.2047581915621 H 0.0 **** 0.06
26920 H 125.6518039170278 202.23924426526509 198.07909187113006 H 0.0 **** 0.06
26921 C 188.98342344072643 14.755538295240768 205.33575667155858 C 0.0 **** -0.24
26922 H 188.64830790455943 14.138975801731334 206.1685996167676 H 0.0 **** 0.06
26923 H 188.53295083520388 14.394034688147258 204.41144357089135 H 0.0 **** 0.06
26924 H 190.06921776735118 14.700941003430273 205.25676962333407 H 0.0 **** 0.06
26925 H 188.68342129970472 15.789545593473747 205.5058235969725 H 0.0 **** 0.06
26926 C 176.07819938240561 30.347926105252895 176.42175208266548 C 0.0 **** -0.24
26927 H 175.09550087258233 29.954584447680304 176.16417861142838 H 0.0 **** 0.06
26928 H 175.96264464345785 31.26159157485654 177.0057543661867 H 0.0 **** 0.06
26929 H 176.63128635590576 30.568108242819022 175.50841711094876 H 0.0 **** 0.06
26930 H 176.62373297083045 29.608324379217237 177.007634770215 H 0.0 **** 0.06
26931 C 62.67331750160557 149.90084061233807 80.77170883903642 C 0.0 **** -0.24
26932 H 61.764823565824656 150.44583484689502 80.5164380413924 H 0.0 **** 0.06
26933 H 62.42969850432641 148.85269819994238 80.94971004738568 H 0.0 **** 0.06
26934 H 63.114576191815516 150.3293677751348 81.67158348364143 H 0.0 **** 0.06
26935 H 63.384938943665944 149.9740857708751 79.94838373157779 H 0.0 **** 0.06
26936 C 131.87859672708828 165.54188025217184 24.563106996473266 C 0.0 **** -0.24
26937 H 131.79035640000382 164.74286048875206 25.29954586479512 H 0.0 **** 0.06
26938 H 132.56404671134356 165.23373626189994 23.773471168590177 H 0.0 **** 0.06
26939 H 132.26232015468798 166.4409318449121 25.04729676622938 H 0.0 **** 0.06
26940 H 130.8988864739893 165.75045493806738 24.13418562420229 H 0.0 **** 0.06
26941 C 137.8311240420487 141.86103544931967 42.48139697049638 C 0.0 **** -0.24
26942 H 136.88289864198924 141.97735972217197 43.005911398697236 H 0.0 **** 0.06
26943 H 138.64731932493805 142.17309054327222 43.13399258629403 H 0.0 **** 0.06
26944 H 137.8278754032616 142.4791097475587 41.58364436376604 H 0.0 **** 0.06
26945 H 137.96730523646022 140.8154753497484 42.20321732626161 H 0.0 **** 0.06
26946 C 61.81539072753999 216.24071380576558 154.84216179283231 C 0.0 **** -0.24
26947 H 61.06663112860312 216.4505535081855 155.6057110655109 H 0.0 **** 0.06
26948 H 61.33077956574313 216.16832078249703 153.8683725892722 H 0.0 **** 0.06
26949 H 62.31361788201227 215.29871995389226 155.07150307467356 H 0.0 **** 0.06
26950 H 62.55074418546262 217.04595563471963 154.82374850578572 H 0.0 **** 0.06
26951 C 66.98062558113753 192.4550713598458 180.32716499984843 C 0.0 **** -0.24
26952 H 66.37761751609142 191.93464440574465 181.07058357587601 H 0.0 **** 0.06
26953 H 67.88990661042403 192.83088297835877 180.79588961783148 H 0.0 **** 0.06
26954 H 66.41132070988233 193.2883159471067 179.91584328957447 H 0.0 **** 0.06
26955 H 67.24366617539644 191.76457060904562 179.5251197921674 H 0.0 **** 0.06
26956 C 4.3160523937270625 86.9472415454959 23.54491771351435 C 0.0 **** -0.24
26957 H 3.8157077043106824 86.24398415966834 24.210072105286187 H 0.0 **** 0.06
26958 H 4.123256875181539 86.66782081094402 22.508617517728453 H 0.0 **** 0.06
26959 H 5.390074794175234 86.92433978164826 23.73260774814878 H 0.0 **** 0.06
26960 H 3.937186507922462 87.95321116686932 23.727038299754653 H 0.0 **** 0.06
26961 C 207.20149385490228 9.155620273695376 39.27017472693538 C 0.0 **** -0.24
26962 H 206.75295026542273 10.144313640342759 39.36081242175804 H 0.0 **** 0.06
26963 H 208.19606644049875 9.246628887267576 38.83231977485663 H 0.0 **** 0.06
26964 H 206.57825953378062 8.530760055556925 38.6298194822585 H 0.0 **** 0.06
26965 H 207.28036371898284 8.699474221663706 40.25702043994848 H 0.0 **** 0.06
26966 C 138.39884973090778 66.6968421105451 169.19797594600658 C 0.0 **** -0.24
26967 H 139.4374023978698 66.85472136290448 168.9067172286058 H 0.0 **** 0.06
26968 H 137.74564025010716 66.94102983702669 168.36021711084192 H 0.0 **** 0.06
26969 H 138.15866764584206 67.33958601536898 170.04591580496597 H 0.0 **** 0.06
26970 H 138.2556264476051 65.65396155810913 169.48064072909875 H 0.0 **** 0.06
26971 C 142.73957312222234 20.856068014499158 79.30708934218366 C 0.0 **** -0.24
26972 H 143.62424212428567 20.722556191699567 78.68378082991786 H 0.0 **** 0.06
26973 H 141.97155688670256 20.142931604020504 79.00372702032116 H 0.0 **** 0.06
26974 H 142.3611808408919 21.870302752983363 79.1877944171725 H 0.0 **** 0.06
26975 H 143.0020702030066 20.685436342023053 80.35101713975816 H 0.0 **** 0.06
26976 C 131.2499321266306 184.55345675860724 112.92011350112818 C 0.0 **** -0.24
26977 H 132.31481997769333 184.3685965918799 113.06272390315479 H 0.0 **** 0.06
26978 H 130.93139467810005 184.1284592215789 111.96804988400942 H 0.0 **** 0.06
26979 H 131.06553869282715 185.62800406383627 112.91897490284401 H 0.0 **** 0.06
26980 H 130.6899607426967 184.08949913093477 113.73193891454946 H 0.0 **** 0.06
26981 C 106.60182997034474 105.33609491438985 20.148965060147958 C 0.0 **** -0.24
26982 H 106.59158081831634 105.316562056938 19.059824786594845 H 0.0 **** 0.06
26983 H 106.96424896879165 106.30650994944237 20.490930406365976 H 0.0 **** 0.06
26984 H 107.25895641110611 104.55071861288882 20.520713659277646 H 0.0 **** 0.06
26985 H 105.59177108955572 105.1726304264783 20.524892656741912 H 0.0 **** 0.06
26986 C 165.45139487747545 91.80095709274944 209.02402090298241 C 0.0 **** -0.24
26987 H 166.19834524483326 91.49543415822608 209.7575480277971 H 0.0 **** 0.06
26988 H 164.54998190701497 91.20183604426573 209.15280662494214 H 0.0 **** 0.06
26989 H 165.84748848077214 91.65151742765873 208.01929567157293 H 0.0 **** 0.06
26990 H 165.21178904175312 92.85434995431707 209.167082600775 H 0.0 **** 0.06
26991 C 52.376169864154576 159.4527229522873 31.832265161240542 C 0.0 **** -0.24
26992 H 51.90664886872949 160.08451282326158 32.58600697660174 H 0.0 **** 0.06
26993 H 52.91394515106276 158.64114269766043 32.322453256304414 H 0.0 **** 0.06
26994 H 53.07282527484594 160.04683208186202 31.242347635672218 H 0.0 **** 0.06
26995 H 51.60838430529151 159.0371218894957 31.177960746861515 H 0.0 **** 0.06
26996 C 84.96804633262462 170.25060788464242 37.69666383869992 C 0.0 **** -0.24
26997 H 83.89496713417702 170.06169994869074 37.67043487823443 H 0.0 **** 0.06
26998 H 85.17424307940627 171.23250908548476 37.26886704533743 H 0.0 **** 0.06
26999 H 85.48496680446897 169.48640299996495 37.117817377382096 H 0.0 **** 0.06
27000 H 85.3161902571876 170.22324053884503 38.728714203519246 H 0.0 **** 0.06
27001 C 198.0819603670373 71.13673616981656 120.28776917083844 C 0.0 **** -0.24
27002 H 197.6988561620475 71.85315889181705 119.56035195478627 H 0.0 **** 0.06
27003 H 199.03989424489384 70.74756270597977 119.94353548759791 H 0.0 **** 0.06
27004 H 197.37394315162493 70.31597583339082 120.39799717211325 H 0.0 **** 0.06
27005 H 198.2153236346273 71.63354636932722 121.2494837984106 H 0.0 **** 0.06
27006 C 166.87912522098003 95.17142908636536 159.41105256079956 C 0.0 **** -0.24
27007 H 167.15181468816647 94.1313010351143 159.22867588571316 H 0.0 **** 0.06
27008 H 166.132244348148 95.2171759731343 160.20327305487152 H 0.0 **** 0.06
27009 H 166.46831094278838 95.60313940651885 158.49831493849763 H 0.0 **** 0.06
27010 H 167.76436582951925 95.7311967959342 159.711597565224 H 0.0 **** 0.06
27011 C 162.5999678618291 73.29213619632468 46.558802459536764 C 0.0 **** -0.24
27012 H 162.4883948372145 72.78469476417821 45.600537469190385 H 0.0 **** 0.06
27013 H 162.28998952422376 72.62234864297021 47.361811939167694 H 0.0 **** 0.06
27014 H 161.9768104995859 74.18633402897795 46.57056144694252 H 0.0 **** 0.06
27015 H 163.64283434325483 73.57296602502088 46.700972151259975 H 0.0 **** 0.06
27016 C 130.35015394398425 72.1262637265142 155.56619579419618 C 0.0 **** -0.24
27017 H 131.01121332565833 72.82226072655749 156.083606485838 H 0.0 **** 0.06
27018 H 129.46791515268484 72.6586084311914 155.21204617724885 H 0.0 **** 0.06
27019 H 130.0463546637642 71.33651691144422 156.2535145755105 H 0.0 **** 0.06
27020 H 130.87687680875348 71.6884990206679 154.71866041992018 H 0.0 **** 0.06
27021 C 13.04723797678379 150.7217649501044 65.84344283812459 C 0.0 **** -0.24
27022 H 12.169515343788348 150.4053221502071 66.40878972746526 H 0.0 **** 0.06
27023 H 12.812652455758311 151.6310490312897 65.28899153364512 H 0.0 **** 0.06
27024 H 13.333252958514407 149.93404421146005 65.14754013002045 H 0.0 **** 0.06
27025 H 13.86970831667223 150.91574562006554 66.53081184400065 H 0.0 **** 0.06
27026 C 120.8819957592436 70.598220305484 30.471448665510223 C 0.0 **** -0.24
27027 H 120.8344287618829 69.5104452566797 30.528998408670134 H 0.0 **** 0.06
27028 H 120.33051836007438 70.93930920806321 29.59492303174254 H 0.0 **** 0.06
27029 H 121.92284232288198 70.91141876019543 30.391634563445066 H 0.0 **** 0.06
27030 H 120.4397942086196 71.02933277062715 31.369792682634227 H 0.0 **** 0.06
27031 C 151.36055463975373 79.8654939931801 9.691520198418118 C 0.0 **** -0.24
27032 H 150.75221761854408 79.73430790209981 8.795965378696565 H 0.0 **** 0.06
27033 H 152.34191315062776 79.41787949493117 9.531301948696523 H 0.0 **** 0.06
27034 H 150.87282496324406 79.38094710491866 10.536069886459018 H 0.0 **** 0.06
27035 H 151.47641916081886 80.92935011188995 9.898693335326016 H 0.0 **** 0.06
27036 C 101.31324237321441 74.85734570571096 197.89809455202612 C 0.0 **** -0.24
27037 H 100.53388883727102 74.11869207691011 197.71347060416485 H 0.0 **** 0.06
27038 H 101.24309983836766 75.6528416330308 197.15583758785743 H 0.0 **** 0.06
27039 H 102.28969977699883 74.38000163051986 197.82945291635951 H 0.0 **** 0.06
27040 H 101.18426802969485 75.27888650526656 198.89582354246198 H 0.0 **** 0.06
27041 C 106.7293467867457 121.28232804091431 43.65140909807232 C 0.0 **** -0.24
27042 H 106.78184919328031 122.37132076591433 43.66118099461495 H 0.0 **** 0.06
27043 H 106.19834773407327 120.9359879429677 44.537814011859496 H 0.0 **** 0.06
27044 H 107.73857795873074 120.87024679439645 43.6469786246123 H 0.0 **** 0.06
27045 H 106.19921265504557 120.95249179652677 42.757404619620246 H 0.0 **** 0.06
27046 C 194.70672889190402 151.49445347400854 101.4668289582114 C 0.0 **** -0.24
27047 H 193.8688561418124 151.35298738772877 102.14992539888912 H 0.0 **** 0.06
27048 H 195.47656997428487 150.75208529108795 101.67839533717351 H 0.0 **** 0.06
27049 H 195.11896564139462 152.49447211375656 101.59982035545296 H 0.0 **** 0.06
27050 H 194.36068319832262 151.37709467367262 100.43965738779748 H 0.0 **** 0.06
27051 C 173.26071371914225 128.58360344803998 200.5254491860025 C 0.0 **** -0.24
27052 H 172.75019741001697 128.72364633089126 201.47812553248212 H 0.0 **** 0.06
27053 H 173.56982551181144 127.54230725956383 200.42916678172713 H 0.0 **** 0.06
27054 H 174.13845413525684 129.22821136400552 200.48536771945453 H 0.0 **** 0.06
27055 H 172.58462453366644 128.8390528012768 199.70984991640765 H 0.0 **** 0.06
27056 C 27.512353431765547 31.726452618173695 94.1638111553314 C 0.0 **** -0.24
27057 H 28.141235097806074 32.278664050183465 93.46631527629948 H 0.0 **** 0.06
27058 H 26.477219381671375 31.758407006870485 93.82343848208289 H 0.0 **** 0.06
27059 H 27.583296580137997 32.177907650053484 95.15328250766392 H 0.0 **** 0.06
27060 H 27.84763725152382 30.689638439779557 94.21296688111623 H 0.0 **** 0.06
27061 C 91.79608491812526 37.261965395077794 200.24330337879246 C 0.0 **** -0.24
27062 H 91.24116844797472 37.480427542397194 199.3312347803561 H 0.0 **** 0.06
27063 H 91.59022463729944 36.239081962505225 200.55737367563927 H 0.0 **** 0.06
27064 H 91.49068781269425 37.95243871272703 201.02946452112988 H 0.0 **** 0.06
27065 H 92.86426730243183 37.37612356585271 200.05418047812535 H 0.0 **** 0.06
27066 C 21.522515737197807 175.21751064406652 12.739035183974522 C 0.0 **** -0.24
27067 H 21.432609495288546 174.19624813321852 12.367753751700178 H 0.0 **** 0.06
27068 H 20.534623417888156 175.67541266047442 12.783212511151035 H 0.0 **** 0.06
27069 H 22.16045622672823 175.7920810253907 12.068529463472828 H 0.0 **** 0.06
27070 H 21.962445074108416 175.20299171515347 13.736432057570696 H 0.0 **** 0.06
27071 C 178.5620868114133 144.1649482430164 157.92943045327831 C 0.0 **** -0.24
27072 H 179.29302698396893 144.66187905755658 157.29078862652017 H 0.0 **** 0.06
27073 H 177.6469856102301 144.75736852152573 157.96212853508183 H 0.0 **** 0.06
27074 H 178.9677087974852 144.06656667842054 158.93651337651517 H 0.0 **** 0.06
27075 H 178.3415858198408 143.17536763775564 157.52867780925806 H 0.0 **** 0.06
27076 C 198.9987408012537 68.45414110035507 17.296421385782594 C 0.0 **** -0.24
27077 H 198.99031418942985 68.35632492968473 16.211210755358024 H 0.0 **** 0.06
27078 H 200.02781906748902 68.43118193607945 17.65475074888417 H 0.0 **** 0.06
27079 H 198.44088019143118 67.6298064842837 17.73940343757124 H 0.0 **** 0.06
27080 H 198.53561910042202 69.40001053569516 17.578500184384552 H 0.0 **** 0.06
27081 C 156.4670812741656 163.15094874965996 68.78397554466875 C 0.0 **** -0.24
27082 H 156.8387396107322 162.13262776801733 68.89047703697128 H 0.0 **** 0.06
27083 H 157.30865537834455 163.84377658077153 68.75330342632338 H 0.0 **** 0.06
27084 H 155.82687047563752 163.39382226104044 69.63221886599996 H 0.0 **** 0.06
27085 H 155.89359800751907 163.2346990727793 67.86061593461142 H 0.0 **** 0.06
27086 C 156.67168343795805 182.69529762164166 67.02287537360138 C 0.0 **** -0.24
27087 H 156.90504540930397 181.72234530289495 67.45606369678791 H 0.0 **** 0.06
27088 H 155.61534892239445 182.73029227502764 66.75639478945203 H 0.0 **** 0.06
27089 H 157.27679070448238 182.85060395947684 66.12969550755173 H 0.0 **** 0.06
27090 H 156.89015542103584 183.4776401367425 67.75058708819085 H 0.0 **** 0.06
27091 C 36.82066126088836 44.029312977541906 110.94794261217571 C 0.0 **** -0.24
27092 H 37.579086575449935 44.04287282611085 111.72941703618314 H 0.0 **** 0.06
27093 H 37.27414306858037 43.71699785251201 110.0069932737993 H 0.0 **** 0.06
27094 H 36.39763088439895 45.027331053312025 110.83426167912224 H 0.0 **** 0.06
27095 H 36.030632784113294 43.32931339810449 111.22073692866066 H 0.0 **** 0.06
27096 C 165.9334212635396 86.21136193499127 85.8685287880295 C 0.0 **** -0.24
27097 H 166.15027705415727 87.17539416631958 85.40718447117877 H 0.0 **** 0.06
27098 H 166.85428301707395 85.63421270067978 85.95320187403388 H 0.0 **** 0.06
27099 H 165.21804496579165 85.6670960153691 85.25197262798582 H 0.0 **** 0.06
27100 H 165.51113933460243 86.37056779458341 86.8604625534233 H 0.0 **** 0.06
27101 C 143.21414545342333 2.9770550500296054 174.5657121449268 C 0.0 **** -0.24
27102 H 143.7762023628515 3.5136710010047523 173.8014599053266 H 0.0 **** 0.06
27103 H 142.14677771834693 3.1327236757853427 174.40925278355132 H 0.0 **** 0.06
27104 H 143.49578994122407 3.348537319783162 175.55132030911798 H 0.0 **** 0.06
27105 H 143.44010211327276 1.9125158955910422 174.50121315842657 H 0.0 **** 0.06
27106 C 97.86308321847243 18.453868793989955 79.68069231555313 C 0.0 **** -0.24
27107 H 96.86526354129184 18.820130863172096 79.43750074648403 H 0.0 **** 0.06
27108 H 97.81081225503284 17.392249726272894 79.92430236302897 H 0.0 **** 0.06
27109 H 98.25337549013425 19.005040934624333 80.53672465397227 H 0.0 **** 0.06
27110 H 98.52208336219353 18.599218776792696 78.82416832543657 H 0.0 **** 0.06
27111 C 163.6661529389503 39.93126996298837 6.6963291211393425 C 0.0 **** -0.24
27112 H 164.56921883893403 40.00531193729266 6.0915019711569585 H 0.0 **** 0.06
27113 H 163.56590816989817 38.91485762643785 7.076589661982041 H 0.0 **** 0.06
27114 H 162.79804458186143 40.1782765703047 6.084670912715524 H 0.0 **** 0.06
27115 H 163.73068530266883 40.62782378796837 7.532672048281029 H 0.0 **** 0.06
27116 C 139.55400674791974 109.29699587141035 14.525477053544023 C 0.0 **** -0.24
27117 H 139.6466824632725 110.37725955555358 14.641281785118025 H 0.0 **** 0.06
27118 H 139.9222763830483 108.8027531821708 15.424698262883169 H 0.0 **** 0.06
27119 H 140.1405249332716 108.97304806295138 13.665757115623933 H 0.0 **** 0.06
27120 H 138.507163261961 109.03619103489358 14.370088222346055 H 0.0 **** 0.06
27121 C 187.77827704590578 74.99600518279307 41.702667733793916 C 0.0 **** -0.24
27122 H 188.6567317211424 75.39465002966016 41.194755522586874 H 0.0 **** 0.06
27123 H 187.14419909424723 74.47962577992497 40.9805350345238 H 0.0 **** 0.06
27124 H 187.2199479429487 75.81305760765652 42.15814337726293 H 0.0 **** 0.06
27125 H 188.0930099420887 74.29495597775367 42.476609835468125 H 0.0 **** 0.06
27126 C 132.301737269154 54.66758315754315 105.81812148955139 C 0.0 **** -0.24
27127 H 132.74321573223096 55.22575168917422 106.64371690676863 H 0.0 **** 0.06
27128 H 132.56511499800627 53.61383511669824 105.91219265138857 H 0.0 **** 0.06
27129 H 132.6834427933279 55.0542410392501 104.87241765817573 H 0.0 **** 0.06
27130 H 131.2178032851245 54.77522744282861 105.84347787952474 H 0.0 **** 0.06
27131 C 113.17588952866704 139.9814851270699 203.22130658583347 C 0.0 **** -0.24
27132 H 112.32309473449097 139.85716680449752 203.8893388794031 H 0.0 **** 0.06
27133 H 112.82725899697458 140.00544475193777 202.18883197320372 H 0.0 **** 0.06
27134 H 113.86532512319853 139.14830303896144 203.35367080910387 H 0.0 **** 0.06
27135 H 113.68592236978115 140.91651418374585 203.4547831686928 H 0.0 **** 0.06
27136 C 149.005690813692 133.2752315960065 39.78688059802687 C 0.0 **** -0.24
27137 H 148.00054663062224 133.05195395423993 40.143557469224845 H 0.0 **** 0.06
27138 H 148.94419787884516 133.80192418614723 38.834137881067306 H 0.0 **** 0.06
27139 H 149.55901296231383 132.3459845160565 39.65359672985841 H 0.0 **** 0.06
27140 H 149.518724550486 133.90175287906993 40.5168981408695 H 0.0 **** 0.06
27141 C 7.134128886739973 179.13091635409296 44.629727056682384 C 0.0 **** -0.24
27142 H 7.000436080503988 178.6369143788337 45.591680488240456 H 0.0 **** 0.06
27143 H 8.103649156365833 178.85741060004068 44.21299669823526 H 0.0 **** 0.06
27144 H 7.0892426630761065 180.21196127258176 44.76726349909865 H 0.0 **** 0.06
27145 H 6.342772209744908 178.81824767053345 43.94800346768034 H 0.0 **** 0.06
27146 C 76.78354937605148 31.530096254790166 188.77280842603273 C 0.0 **** -0.24
27147 H 77.3312911393978 32.44541718602524 188.54632286889785 H 0.0 **** 0.06
27148 H 77.4364418854178 30.670306792209885 188.62306335937248 H 0.0 **** 0.06
27149 H 75.92046069022139 31.451254023947584 188.11196732910037 H 0.0 **** 0.06
27150 H 76.4474528113878 31.55600257766912 189.8094757313209 H 0.0 **** 0.06
27151 C 61.00410857872322 97.14306109197024 7.176208286583716 C 0.0 **** -0.24
27152 H 61.0454645827251 97.93436057524649 7.9254338627836205 H 0.0 **** 0.06
27153 H 61.61750015523987 96.30261083379473 7.5018588407081666 H 0.0 **** 0.06
27154 H 61.38043743593242 97.52301451825063 6.226316648134926 H 0.0 **** 0.06
27155 H 59.97172003553709 96.81441514364347 7.052499391349784 H 0.0 **** 0.06
27156 C 213.34493569558668 205.77531336580276 197.14971830882837 C 0.0 **** -0.24
27157 H 213.2386438261302 206.42462794094854 198.01893506169228 H 0.0 **** 0.06
27158 H 213.78656706124315 204.8266981389253 197.45612496115243 H 0.0 **** 0.06
27159 H 213.99135517344428 206.25537726617503 196.41479337899682 H 0.0 **** 0.06
27160 H 212.36457154667497 205.5946205274663 196.7087972596654 H 0.0 **** 0.06
27161 C 202.37944503811775 5.009599789929382 49.28894928566166 C 0.0 **** -0.24
27162 H 202.88731612613253 5.912271510630035 49.63030083327425 H 0.0 **** 0.06
27163 H 202.77417416880274 4.1465408564352515 49.82545682007128 H 0.0 **** 0.06
27164 H 202.54689016363238 4.881471183233828 48.21963767391611 H 0.0 **** 0.06
27165 H 201.31029057409233 5.099931473659467 49.48135525877183 H 0.0 **** 0.06
27166 C 30.089188541972817 100.49785935094616 47.20907119988935 C 0.0 **** -0.24
27167 H 30.20121823142884 100.01099327947782 48.17755656605824 H 0.0 **** 0.06
27168 H 29.0794728560615 100.89688046060633 47.11791470508169 H 0.0 **** 0.06
27169 H 30.26728248733386 99.77225176450344 46.41509303731708 H 0.0 **** 0.06
27170 H 30.810531401155004 101.3111741074274 47.12667744055729 H 0.0 **** 0.06
27171 C 54.41182382783917 91.10865246013834 131.8011551629806 C 0.0 **** -0.24
27172 H 54.256045023948076 90.09721090819683 132.17565760392745 H 0.0 **** 0.06
27173 H 53.71960572703989 91.3032522800511 130.98219048639123 H 0.0 **** 0.06
27174 H 55.43680927623207 91.20868801928795 131.44213862053033 H 0.0 **** 0.06
27175 H 54.23680077800577 91.82443780052297 132.60432601313954 H 0.0 **** 0.06
27176 C 60.9862503616925 92.12969121188438 185.91507967776562 C 0.0 **** -0.24
27177 H 61.86385285217045 92.42132103360801 186.49121337452817 H 0.0 **** 0.06
27178 H 61.12574549685712 91.11914589865295 185.52802224788093 H 0.0 **** 0.06
27179 H 60.85025077872103 92.82201789955785 185.08355696193433 H 0.0 **** 0.06
27180 H 60.10559893960709 92.15468435578119 186.5570216960874 H 0.0 **** 0.06
27181 C 152.0606083025483 147.38147370163904 37.34558005574348 C 0.0 **** -0.24
27182 H 153.10589863516304 147.23546736903972 37.075231410463005 H 0.0 **** 0.06
27183 H 151.7639617304514 148.40382743765394 37.10950633732625 H 0.0 **** 0.06
27184 H 151.93259715669632 147.20279732895688 38.413633450057546 H 0.0 **** 0.06
27185 H 151.43918131264707 146.6844049907025 36.783870311746796 H 0.0 **** 0.06
27186 C 40.21801803308098 113.28568733711482 154.30289716902706 C 0.0 **** -0.24
27187 H 40.71497990529322 113.06890680730417 155.24805177131157 H 0.0 **** 0.06
27188 H 39.692328415439334 114.23723178222171 154.37943946974815 H 0.0 **** 0.06
27189 H 39.50380544681052 112.49302630395708 154.07833310847934 H 0.0 **** 0.06
27190 H 40.95952302230553 113.34222504990514 153.50680926416334 H 0.0 **** 0.06
27191 C 189.02779674646874 111.18973147002522 50.75884740870322 C 0.0 **** -0.24
27192 H 188.05683630687693 110.85809011787548 50.391946928365144 H 0.0 **** 0.06
27193 H 188.95165283615466 111.43279922789411 51.81920882164269 H 0.0 **** 0.06
27194 H 189.34370785977654 112.0738601868792 50.20579523717521 H 0.0 **** 0.06
27195 H 189.76000137711353 110.39395293293661 50.62042037737473 H 0.0 **** 0.06
27196 C 180.4676249649456 42.06099989802826 198.58718812123232 C 0.0 **** -0.24
27197 H 179.38732964727188 41.91093831536041 198.5922586003465 H 0.0 **** 0.06
27198 H 180.95543391771088 41.17282246255513 198.18657684844806 H 0.0 **** 0.06
27199 H 180.81351905126658 42.238635784292015 199.60570857646763 H 0.0 **** 0.06
27200 H 180.71153958038957 42.92241019803238 197.96529416323824 H 0.0 **** 0.06
27201 C 30.711758996168726 161.41756786379858 159.87941061287358 C 0.0 **** -0.24
27202 H 30.565369239708957 160.87356613486168 160.81238075691402 H 0.0 **** 0.06
27203 H 31.761165634536326 161.36285626876435 159.58933219191465 H 0.0 **** 0.06
27204 H 30.427301089663644 162.46004325582243 160.0184461279876 H 0.0 **** 0.06
27205 H 30.09460655780626 160.97202698368204 159.09968738254656 H 0.0 **** 0.06
27206 C 56.5738071053388 134.9563168049276 144.56742197450097 C 0.0 **** -0.24
27207 H 56.061892674385234 135.87190252870755 144.8652349198989 H 0.0 **** 0.06
27208 H 56.95299290784742 134.44742522251698 145.45473345003006 H 0.0 **** 0.06
27209 H 57.40470437242857 135.20305595921627 143.90709050888597 H 0.0 **** 0.06
27210 H 55.875444686173196 134.30370235685103 144.04492946250292 H 0.0 **** 0.06
27211 C 210.0398973792469 27.478545864427588 44.585632433928026 C 0.0 **** -0.24
27212 H 209.1979405197706 27.4782141331267 45.2776025682648 H 0.0 **** 0.06
27213 H 209.7415966489164 27.956073491355937 43.65201463960153 H 0.0 **** 0.06
27214 H 210.3479298431089 26.452482659396367 44.38743450762502 H 0.0 **** 0.06
27215 H 210.87104082046966 28.029341057054495 45.0258146345177 H 0.0 **** 0.06
27216 C 64.18216169914035 140.82666927061655 201.3440685343721 C 0.0 **** -0.24
27217 H 64.01738551405614 141.70579794802535 200.72109926212832 H 0.0 **** 0.06
27218 H 63.22364926391684 140.4570079770341 201.71112658226792 H 0.0 **** 0.06
27219 H 64.81520294450462 141.09533394834784 202.18992148502383 H 0.0 **** 0.06
27220 H 64.67042245450803 140.05042932789092 200.75569951226024 H 0.0 **** 0.06
27221 C 23.485170549220513 71.80902802203104 84.01688314725654 C 0.0 **** -0.24
27222 H 22.690493546054938 71.11802103298987 84.29985656455743 H 0.0 **** 0.06
27223 H 23.20082027323403 72.33453939911504 83.10544316370245 H 0.0 **** 0.06
27224 H 24.40629838250534 71.2516289446175 83.84389778164832 H 0.0 **** 0.06
27225 H 23.64152682602628 72.52948880964345 84.81916868814936 H 0.0 **** 0.06
27226 C 19.163300462904772 157.21771998781452 12.52353643267962 C 0.0 **** -0.24
27227 H 18.611563148927218 157.28546171018553 13.461326994604889 H 0.0 **** 0.06
27228 H 18.748805322136803 157.92640163883004 11.806746904491547 H 0.0 **** 0.06
27229 H 19.07953980371792 156.20658054826612 12.125654143433735 H 0.0 **** 0.06
27230 H 20.21214506280444 157.4523149985945 12.701708545251378 H 0.0 **** 0.06
27231 C 165.741942247061 174.41004082113912 212.27338963519296 C 0.0 **** -0.24
27232 H 165.0064712489907 175.01033660966982 211.73797062985108 H 0.0 **** 0.06
27233 H 166.4669053489792 174.00809649453927 211.56421022974303 H 0.0 **** 0.06
27234 H 165.2396998956302 173.5900435209223 212.7844631586381 H 0.0 **** 0.06
27235 H 166.25599307567336 175.0345048602329 213.0048249124143 H 0.0 **** 0.06
27236 C 173.36410143493282 29.853858936897396 11.042032213053773 C 0.0 **** -0.24
27237 H 172.81672096309563 30.28974658851419 11.876927228402678 H 0.0 **** 0.06
27238 H 174.40906892314672 30.158511061723658 11.09298469675619 H 0.0 **** 0.06
27239 H 172.9300860525516 30.199182980169724 10.103227065852224 H 0.0 **** 0.06
27240 H 173.29922906622545 28.766842279397707 11.092544619540575 H 0.0 **** 0.06
27241 C 143.34569565742032 140.50407844803686 194.42444392450287 C 0.0 **** -0.24
27242 H 143.78795377928964 140.0482043904073 195.3094279405102 H 0.0 **** 0.06
27243 H 144.08743287023185 140.54520248358529 193.62627735566866 H 0.0 **** 0.06
27244 H 143.01334319530906 141.51449789044176 194.66344922827494 H 0.0 **** 0.06
27245 H 142.4923583084106 139.90941852321043 194.09716866878048 H 0.0 **** 0.06
27246 C 157.62862759680854 210.0729560626118 177.95806455137463 C 0.0 **** -0.24
27247 H 157.13947592406078 210.94916555406257 177.53422179719593 H 0.0 **** 0.06
27248 H 156.98549742134867 209.6297262689248 178.71808169404846 H 0.0 **** 0.06
27249 H 158.5757712605054 210.36933447475417 178.41022367741795 H 0.0 **** 0.06
27250 H 157.81641179706008 209.34446464510023 177.16923346213434 H 0.0 **** 0.06
27251 C 74.40673538716095 18.78271251094931 88.63820747097225 C 0.0 **** -0.24
27252 H 75.466199999683 18.553243464957035 88.75417658898198 H 0.0 **** 0.06
27253 H 74.26934432511081 19.444583812910523 87.78260228880367 H 0.0 **** 0.06
27254 H 74.04133278216847 19.273892938083918 89.5400521698548 H 0.0 **** 0.06
27255 H 73.85102526718106 17.85961493251763 88.47735586928547 H 0.0 **** 0.06
27256 C 177.7218724259364 33.68335125896408 61.63073456738293 C 0.0 **** -0.24
27257 H 178.637769026713 33.11183691163728 61.48087162455819 H 0.0 **** 0.06
27258 H 177.79134934563393 34.62858258945312 61.09171616464998 H 0.0 **** 0.06
27259 H 177.58830167931006 33.88108081061603 62.694516041473904 H 0.0 **** 0.06
27260 H 176.87193766959632 33.11286513058849 61.2579764665346 H 0.0 **** 0.06
27261 C 92.56557754881881 112.81188041945263 121.18392705333451 C 0.0 **** -0.24
27262 H 91.74927424273143 113.28636335461606 120.6381835109766 H 0.0 **** 0.06
27263 H 92.73336270541559 111.81025084521768 120.78626953944087 H 0.0 **** 0.06
27264 H 92.30533049983443 112.74547007359438 122.24020460778138 H 0.0 **** 0.06
27265 H 93.47249930992085 113.40484577967634 121.06954994841084 H 0.0 **** 0.06
27266 C 49.709655840012545 205.55277107886397 214.27799023326813 C 0.0 **** -0.24
27267 H 50.360415598556585 204.75313558340272 214.63001995666434 H 0.0 **** 0.06
27268 H 48.70996136610114 205.4167428588252 214.69130540277882 H 0.0 **** 0.06
27269 H 49.65972866147655 205.52925637842787 213.18931421394146 H 0.0 **** 0.06
27270 H 50.10903635632309 206.5141770594204 214.60219833651377 H 0.0 **** 0.06
27271 C 141.70583775982163 215.0905301354007 50.362930403699195 C 0.0 **** -0.24
27272 H 141.91427063325864 214.6982542219538 51.35854754383047 H 0.0 **** 0.06
27273 H 141.15075348536084 216.02518749625324 50.44918711561027 H 0.0 **** 0.06
27274 H 141.11462385624282 214.36625598577857 49.803332156080614 H 0.0 **** 0.06
27275 H 142.6456940251622 215.27329715006707 49.84117608405775 H 0.0 **** 0.06
27276 C 59.56422308216946 184.39338804310057 98.27235235902238 C 0.0 **** -0.24
27277 H 59.473047004061016 183.44838763887373 98.80835730728812 H 0.0 **** 0.06
27278 H 60.330866840235956 184.302370250769 97.50360387759885 H 0.0 **** 0.06
27279 H 59.84186663716429 185.18248306006944 98.97196315513186 H 0.0 **** 0.06
27280 H 58.610174570730464 184.63958361251272 97.80709511595067 H 0.0 **** 0.06
27281 C 79.17271564234038 91.5064977495117 25.93193693957282 C 0.0 **** -0.24
27282 H 78.83164223257991 92.13153011057351 26.7575092388291 H 0.0 **** 0.06
27283 H 78.86988691646728 90.47424437703229 26.109435912990577 H 0.0 **** 0.06
27284 H 80.25865081910432 91.55987251597357 25.859874125424668 H 0.0 **** 0.06
27285 H 78.72873352044574 91.86068009723756 25.001225443836233 H 0.0 **** 0.06
27286 C 4.263012755090642 64.1883301367281 49.53108729640074 C 0.0 **** -0.24
27287 H 4.698494881275167 63.2798439851876 49.11692628895078 H 0.0 **** 0.06
27288 H 4.638290898805451 65.05290029998724 48.982939601143784 H 0.0 **** 0.06
27289 H 4.537060855501352 64.27682803386904 50.581721331102855 H 0.0 **** 0.06
27290 H 3.1773870642620636 64.14378219586317 49.44160833221002 H 0.0 **** 0.06
27291 C 109.72540746873041 39.18395122996182 156.15875843704998 C 0.0 **** -0.24
27292 H 110.12960939559393 40.0072234696035 156.74689255501562 H 0.0 **** 0.06
27293 H 109.22919603730294 39.579493158904256 155.27203077364334 H 0.0 **** 0.06
27294 H 109.00656374082745 38.627323703075774 156.76059449384826 H 0.0 **** 0.06
27295 H 110.53680854742963 38.52083865820225 155.85643383196503 H 0.0 **** 0.06
27296 C 45.94795798668957 148.16114495300235 13.643308651098067 C 0.0 **** -0.24
27297 H 46.602019721366645 148.95783556911948 13.99895097309502 H 0.0 **** 0.06
27298 H 46.54128343421672 147.27111948102925 13.43386723145602 H 0.0 **** 0.06
27299 H 45.44383842181114 148.48482494065473 12.732339454101393 H 0.0 **** 0.06
27300 H 45.2063585970935 147.9331944317688 14.40877193425284 H 0.0 **** 0.06
27301 C 104.53271927743661 24.33049144229099 93.02520625388583 C 0.0 **** -0.24
27302 H 104.73323349218201 24.30347403480492 91.95420240513009 H 0.0 **** 0.06
27303 H 104.08307421224261 25.289815441828864 93.2859915226794 H 0.0 **** 0.06
27304 H 105.46671326677547 24.205668002649944 93.57330157167438 H 0.0 **** 0.06
27305 H 103.84630061892544 23.524745280771654 93.28657896756276 H 0.0 **** 0.06
27306 C 178.03632481876252 95.80702690940696 101.65582208069418 C 0.0 **** -0.24
27307 H 177.60467538080218 94.80902429815497 101.72410581595705 H 0.0 **** 0.06
27308 H 177.26201851687182 96.51922893881438 101.37111143388114 H 0.0 **** 0.06
27309 H 178.8269667368227 95.81080761806088 100.90606199494346 H 0.0 **** 0.06
27310 H 178.45187462818024 96.08965813361625 102.62414698456837 H 0.0 **** 0.06
27311 C 35.98305533417522 50.61430096820749 181.3619450903409 C 0.0 **** -0.24
27312 H 37.017132337483844 50.49919227902086 181.6865554333068 H 0.0 **** 0.06
27313 H 35.38668120828373 51.009901267789616 182.18401408937268 H 0.0 **** 0.06
27314 H 35.588168910728285 49.64503420629865 181.0593153251499 H 0.0 **** 0.06
27315 H 35.94195826919909 51.30370206333028 180.51870295633722 H 0.0 **** 0.06
27316 C 103.85480888150364 132.31034764921094 153.3947458893545 C 0.0 **** -0.24
27317 H 104.15471547721377 131.30277809382528 153.10845627268037 H 0.0 **** 0.06
27318 H 103.47042755381447 132.298509089858 154.41418689497408 H 0.0 **** 0.06
27319 H 103.07911792699205 132.6647963875423 152.71715623198435 H 0.0 **** 0.06
27320 H 104.7178002184862 132.97522719719564 153.33928143218924 H 0.0 **** 0.06
27321 C 209.98254005785216 166.45309885650005 106.15346047027082 C 0.0 **** -0.24
27322 H 209.2891665548552 165.97057552519192 105.4650089123741 H 0.0 **** 0.06
27323 H 210.52609401864123 165.69288708679858 106.71417634130576 H 0.0 **** 0.06
27324 H 209.4259904830845 167.0873210815016 106.84406013037811 H 0.0 **** 0.06
27325 H 210.68804271177368 167.06236408257007 105.58867730555376 H 0.0 **** 0.06
27326 C 26.31266327248298 158.61463418447818 10.564966420956551 C 0.0 **** -0.24
27327 H 26.408359263438143 158.39200405332923 9.502176111865154 H 0.0 **** 0.06
27328 H 25.562071428603232 159.3930227298979 10.7072243446284 H 0.0 **** 0.06
27329 H 27.272492950420457 158.96035549853954 10.951216250631603 H 0.0 **** 0.06
27330 H 26.008943840381022 157.7141608320847 11.098533079938193 H 0.0 **** 0.06
27331 C 138.624517839879 75.95012469844336 132.42207113575517 C 0.0 **** -0.24
27332 H 138.8995818054177 75.27302209441869 131.6126509511426 H 0.0 **** 0.06
27333 H 138.12078437903398 75.389042573759 133.20972626396724 H 0.0 **** 0.06
27334 H 137.95544865066734 76.72083530685858 132.03962543820393 H 0.0 **** 0.06
27335 H 139.5239190818166 76.41629347443215 132.8250441172059 H 0.0 **** 0.06
27336 C 40.325053740645046 156.51168589556892 215.33439257277803 C 0.0 **** -0.24
27337 H 39.54145941145197 155.8290742769803 215.66316520171307 H 0.0 **** 0.06
27338 H 40.047655557942164 157.53335169416908 215.59294696235082 H 0.0 **** 0.06
27339 H 40.447612023925046 156.43027383126162 214.25428578053956 H 0.0 **** 0.06
27340 H 41.26278435049727 156.25227684919565 215.82655352145886 H 0.0 **** 0.06
27341 C 123.04133210493603 148.20482786534745 195.00569866462743 C 0.0 **** -0.24
27342 H 123.31492323465784 147.53808590039966 195.82360464153533 H 0.0 **** 0.06
27343 H 122.27585753854265 148.90238383990828 195.34646911034122 H 0.0 **** 0.06
27344 H 122.65445811618935 147.6184788131569 194.17256996290473 H 0.0 **** 0.06
27345 H 123.92095004184529 148.76004169764644 194.68054636866412 H 0.0 **** 0.06
27346 C 115.2477807806787 84.53733100863587 107.40307693234435 C 0.0 **** -0.24
27347 H 116.00865550029717 85.26842955180803 107.67956155757743 H 0.0 **** 0.06
27348 H 114.258380824486 84.947417904708 107.60807843984686 H 0.0 **** 0.06
27349 H 115.39130502612319 83.62702308685704 107.98525080379089 H 0.0 **** 0.06
27350 H 115.33475178475594 84.3078759986775 106.3416742956151 H 0.0 **** 0.06
27351 C 198.94379784288353 208.75264816712013 1.4193605379717837 C 0.0 **** -0.24
27352 H 199.50784219455048 209.54620070469767 1.908418262851626 H 0.0 **** 0.06
27353 H 198.24453321970108 208.3124390855756 2.1306172406337396 H 0.0 **** 0.06
27354 H 199.63175841859038 207.98549749918052 1.0623727859898509 H 0.0 **** 0.06
27355 H 198.39192273536403 209.1667382674725 0.5756198264289196 H 0.0 **** 0.06
27356 C 113.31641718175688 40.50508378437752 104.52933427190273 C 0.0 **** -0.24
27357 H 114.29620717170003 40.98323309956396 104.53368785271992 H 0.0 **** 0.06
27358 H 112.86765708687567 40.588522340573604 105.51952088732223 H 0.0 **** 0.06
27359 H 113.4262834824495 39.4533268139719 104.26685038309866 H 0.0 **** 0.06
27360 H 112.67600939701875 40.99731009072946 103.79655033995904 H 0.0 **** 0.06
27361 C 8.189551433917757 158.7312806055019 16.26835227129891 C 0.0 **** -0.24
27362 H 8.29510510326952 158.9004353261244 15.196437512039893 H 0.0 **** 0.06
27363 H 7.752681346012366 159.61454299198556 16.73351375657643 H 0.0 **** 0.06
27364 H 9.170351941084533 158.53800043381457 16.702953558428618 H 0.0 **** 0.06
27365 H 7.5410646222202615 157.8723007671798 16.437679207390772 H 0.0 **** 0.06
27366 C 169.02601275006958 115.74567752296021 185.4606155557222 C 0.0 **** -0.24
27367 H 169.9584315331587 115.18218098005862 185.43149528279855 H 0.0 **** 0.06
27368 H 168.87676561970744 116.25276098411435 184.50729777228963 H 0.0 **** 0.06
27369 H 169.07338462439753 116.4840646232277 186.26186305512687 H 0.0 **** 0.06
27370 H 168.1956455723261 115.06351351670973 185.64319637864833 H 0.0 **** 0.06
27371 C 71.44684689474262 188.59425020806813 39.57693469113963 C 0.0 **** -0.24
27372 H 71.83548881881133 189.47415272290576 40.08998650384524 H 0.0 **** 0.06
27373 H 72.25776796322062 188.09877276210472 39.04139077292652 H 0.0 **** 0.06
27374 H 70.67636418057363 188.89826149954183 38.86768249658684 H 0.0 **** 0.06
27375 H 71.01888987986096 187.90701256829936 40.306376496100825 H 0.0 **** 0.06
27376 C 85.24533089230067 110.55958710175598 132.37520098916053 C 0.0 **** -0.24
27377 H 85.26158749841039 109.65769735030169 131.76237821331085 H 0.0 **** 0.06
27378 H 85.90687469319863 110.42808262199988 133.2314839498889 H 0.0 **** 0.06
27379 H 84.22988123511851 110.74252505797541 132.72407031176317 H 0.0 **** 0.06
27380 H 85.58372371304159 111.4080304729727 131.7801520102978 H 0.0 **** 0.06
27381 C 145.96314531097732 64.03766477391312 45.43957671554638 C 0.0 **** -0.24
27382 H 146.1531843712918 63.55758714761578 46.39956617698549 H 0.0 **** 0.06
27383 H 146.82406356547244 63.897636266229014 44.78600352903706 H 0.0 **** 0.06
27384 H 145.7934133091885 65.1033899191698 45.594648014866266 H 0.0 **** 0.06
27385 H 145.08027810501585 63.59301522501519 44.980405276614434 H 0.0 **** 0.06
27386 C 37.04682940000964 166.24624204471215 132.53973899786206 C 0.0 **** -0.24
27387 H 36.91890299960292 167.20809271795684 132.0427357157459 H 0.0 **** 0.06
27388 H 36.117757681574886 165.68005987427605 132.48163037735503 H 0.0 **** 0.06
27389 H 37.308783728867326 166.4107797585397 133.58488607156534 H 0.0 **** 0.06
27390 H 37.844405364033676 165.68834675162228 132.0485867111534 H 0.0 **** 0.06
27391 C 16.090312416862446 104.14170022389006 113.48535207381595 C 0.0 **** -0.24
27392 H 17.043337009144977 104.63582938669596 113.67176724977584 H 0.0 **** 0.06
27393 H 15.81165092022593 103.54890257415398 114.3572883526205 H 0.0 **** 0.06
27394 H 16.183463168989306 103.48916534076075 112.61650034766971 H 0.0 **** 0.06
27395 H 15.322798569089628 104.89290359394944 113.29585234519759 H 0.0 **** 0.06
27396 C 21.334890819703958 40.380674455421115 194.65958583708974 C 0.0 **** -0.24
27397 H 22.138991063974117 39.91159646632542 194.09182286840542 H 0.0 **** 0.06
27398 H 21.333525349070584 39.991073231414646 195.67810789214516 H 0.0 **** 0.06
27399 H 20.378976219699098 40.15956711340232 194.18472063684138 H 0.0 **** 0.06
27400 H 21.48802736696723 41.45950878107908 194.68264724054472 H 0.0 **** 0.06
27401 C 140.4523062687611 180.89578779942806 107.01171355350895 C 0.0 **** -0.24
27402 H 140.149324651697 181.4177238373451 106.10359513495168 H 0.0 **** 0.06
27403 H 139.61557978290853 180.3065293299284 107.38758106914624 H 0.0 **** 0.06
27404 H 140.75233336678883 181.62431010521473 107.76528713060141 H 0.0 **** 0.06
27405 H 141.29128549051342 180.2368939969636 106.78834400292352 H 0.0 **** 0.06
27406 C 34.89195001886648 216.3248477981776 67.47324920106513 C 0.0 **** -0.24
27407 H 34.12199719819881 217.0428933961538 67.75434224338115 H 0.0 **** 0.06
27408 H 35.46145194434979 216.0379219291454 68.35784869088651 H 0.0 **** 0.06
27409 H 35.561991391244135 216.77797355891533 66.74192043903862 H 0.0 **** 0.06
27410 H 34.42471558407328 215.44116032002256 67.0392566304129 H 0.0 **** 0.06
27411 C 63.552674244301386 183.8128907824858 147.73695000470815 C 0.0 **** -0.24
27412 H 62.96405400239098 184.7304002980032 147.70384927534138 H 0.0 **** 0.06
27413 H 63.311841454098555 183.2607831025515 148.64580303244873 H 0.0 **** 0.06
27414 H 64.61346491709946 184.06329736838686 147.73272802242906 H 0.0 **** 0.06
27415 H 63.31982410791352 183.2013707104176 146.8659878188476 H 0.0 **** 0.06
27416 C 72.98305798891045 176.69790376908503 81.73282299605569 C 0.0 **** -0.24
27417 H 72.45191141288973 176.4486518579211 80.81321548899223 H 0.0 **** 0.06
27418 H 73.47572386071306 175.80538339620796 82.11969490551684 H 0.0 **** 0.06
27419 H 72.27353985327687 177.07070976271575 82.47188310970353 H 0.0 **** 0.06
27420 H 73.72839126444387 177.46464782056984 81.525099673981 H 0.0 **** 0.06
27421 C 109.4534185743672 58.31041678803027 61.1832181291463 C 0.0 **** -0.24
27422 H 109.23895713886363 59.375293484758345 61.27239798579187 H 0.0 **** 0.06
27423 H 108.88984169180621 57.893873696486196 60.34864393881229 H 0.0 **** 0.06
27424 H 109.1665599242052 57.803665486416435 62.10462377776352 H 0.0 **** 0.06
27425 H 110.5203045531613 58.1689339113162 61.00822368982776 H 0.0 **** 0.06
27426 C 177.5717483441387 209.5945697463584 42.63185737194664 C 0.0 **** -0.24
27427 H 178.4495064803167 209.40921046204727 42.01287051879473 H 0.0 **** 0.06
27428 H 177.70349539898018 209.11565646537645 43.60200525557303 H 0.0 **** 0.06
27429 H 176.68803582640797 209.18701491541475 42.14082745086097 H 0.0 **** 0.06
27430 H 177.446776080679 210.66906045418986 42.7706154738286 H 0.0 **** 0.06
27431 C 12.19201682687077 129.2425735249489 89.10726427866537 C 0.0 **** -0.24
27432 H 11.312977266808389 129.0919110426983 88.48165946512681 H 0.0 **** 0.06
27433 H 13.084054658884156 129.2621967165682 88.48222063928687 H 0.0 **** 0.06
27434 H 12.269534173965837 128.42652213628497 89.82650300685118 H 0.0 **** 0.06
27435 H 12.100130915086197 130.18854305112274 89.64003979922067 H 0.0 **** 0.06
27436 C 205.881544867804 83.60760269234379 142.66024712850725 C 0.0 **** -0.24
27437 H 206.1173725047321 84.47176110784062 143.281501262733 H 0.0 **** 0.06
27438 H 204.87345185845143 83.71154688829904 142.26094874629194 H 0.0 **** 0.06
27439 H 205.94338286585125 82.70100821980282 143.26158950042606 H 0.0 **** 0.06
27440 H 206.59441632761025 83.54719167552832 141.83785614575459 H 0.0 **** 0.06
27441 C 193.5203003195807 134.40231180052268 74.07704799006206 C 0.0 **** -0.24
27442 H 193.60520760142597 134.28603462513968 72.99638776764021 H 0.0 **** 0.06
27443 H 192.55999733009816 134.85891760787945 74.31850700624693 H 0.0 **** 0.06
27444 H 194.32714343077203 135.04066855026258 74.4380895434187 H 0.0 **** 0.06
27445 H 193.58881287112774 133.4246181066846 74.55420017807393 H 0.0 **** 0.06
27446 C 70.79443260697946 66.70405006491487 198.27507192658584 C 0.0 **** -0.24
27447 H 71.67866388616653 66.09939395932314 198.0735274516006 H 0.0 **** 0.06
27448 H 70.82978599314293 67.06825942877119 199.30219939061348 H 0.0 **** 0.06
27449 H 69.89986646081826 66.0979083044452 198.13342904282277 H 0.0 **** 0.06
27450 H 70.77132667031532 67.55174528318109 197.59007479276545 H 0.0 **** 0.06
27451 C 150.49122087835076 206.0889079486592 31.284635484963843 C 0.0 **** -0.24
27452 H 151.30569547213685 206.31135813095585 30.595488778084416 H 0.0 **** 0.06
27453 H 150.89793032091802 205.663776394038 32.20222620395886 H 0.0 **** 0.06
27454 H 149.80913715954262 205.375172572233 30.822734253039513 H 0.0 **** 0.06
27455 H 149.95258231795282 207.00812669711348 31.517125373113842 H 0.0 **** 0.06
27456 C 112.04613342995422 36.16433434127407 205.0838423366157 C 0.0 **** -0.24
27457 H 111.53176248654775 36.30759731612298 204.133922667273 H 0.0 **** 0.06
27458 H 111.6879052682227 36.89965126111156 205.80565448731187 H 0.0 **** 0.06
27459 H 113.11887326025986 36.2898759674664 204.93945853921105 H 0.0 **** 0.06
27460 H 111.84520842391264 35.16037633881706 205.45864844573094 H 0.0 **** 0.06
27461 C 157.74276589730977 156.14527822895104 25.229230772044446 C 0.0 **** -0.24
27462 H 158.4193250310439 156.51523040784355 25.999012068636432 H 0.0 **** 0.06
27463 H 157.52102230992767 156.94711801406044 24.525063977275863 H 0.0 **** 0.06
27464 H 156.81723178834056 155.80296771668378 25.693100665018846 H 0.0 **** 0.06
27465 H 158.21250273857385 155.31545169685228 24.70113100484059 H 0.0 **** 0.06
27466 C 83.04945653621127 38.337071187298775 166.68206462257214 C 0.0 **** -0.24
27467 H 83.84388215585767 37.60309785231293 166.54978763333514 H 0.0 **** 0.06
27468 H 82.93660890505669 38.56344492604339 167.74300029639198 H 0.0 **** 0.06
27469 H 82.11340252392802 37.93324092514506 166.29520268818055 H 0.0 **** 0.06
27470 H 83.30319970769165 39.24912491558584 166.14053940653486 H 0.0 **** 0.06
27471 C 85.73062435431024 213.68471890525257 147.2898927362569 C 0.0 **** -0.24
27472 H 85.09205337759187 212.92757322472977 146.83591515258627 H 0.0 **** 0.06
27473 H 86.77668184895305 213.42268130906132 147.12763007314368 H 0.0 **** 0.06
27474 H 85.5296731086612 213.73532377356554 148.3605074656196 H 0.0 **** 0.06
27475 H 85.52455962556678 214.65427319454187 146.8364272526734 H 0.0 **** 0.06
27476 C 17.623225926380712 194.2936845014564 168.94262484475198 C 0.0 **** -0.24
27477 H 18.316245811478723 194.4369049750888 168.11401609556646 H 0.0 **** 0.06
27478 H 18.11168822826582 194.57155224796557 169.87674380747688 H 0.0 **** 0.06
27479 H 17.321063390302072 193.24814967517224 168.9867591455572 H 0.0 **** 0.06
27480 H 16.743251623310925 194.9207907111417 168.7922745860285 H 0.0 **** 0.06
27481 C 83.15674387471267 39.28670918593794 13.43786711544287 C 0.0 **** -0.24
27482 H 83.38687218984677 38.41094956159982 12.830100551858848 H 0.0 **** 0.06
27483 H 83.27934555388254 39.03851593753639 14.493250039504474 H 0.0 **** 0.06
27484 H 82.12824935649087 39.595818471570155 13.25421365148712 H 0.0 **** 0.06
27485 H 83.83373677416387 40.09959120498078 13.174706369761125 H 0.0 **** 0.06
27486 C 26.838918254484255 3.3845247737292183 175.59856105035556 C 0.0 **** -0.24
27487 H 26.62418676121341 3.1214485522664646 176.63406982173052 H 0.0 **** 0.06
27488 H 26.292959538429642 4.290765739567824 175.33335442229668 H 0.0 **** 0.06
27489 H 26.528332267622005 2.5692742269146294 174.94443106153798 H 0.0 **** 0.06
27490 H 27.908176845707914 3.5570418574367793 175.48152671755727 H 0.0 **** 0.06
27491 C 207.79770785319477 5.959190650348447 209.86516382382288 C 0.0 **** -0.24
27492 H 208.29604751339164 5.975153421977907 208.89612053177908 H 0.0 **** 0.06
27493 H 208.16985313997753 6.781470352265288 210.47802118900916 H 0.0 **** 0.06
27494 H 208.0034978443083 5.012067678605391 210.36436889290644 H 0.0 **** 0.06
27495 H 206.72284360496846 6.069181616606926 209.72347768554573 H 0.0 **** 0.06
27496 C 12.128620727824995 206.60243879695975 204.3361481493919 C 0.0 **** -0.24
27497 H 11.82230754513283 207.4860325981033 204.89743541175102 H 0.0 **** 0.06
27498 H 12.023512393111886 205.71774222600084 204.96585712081483 H 0.0 **** 0.06
27499 H 13.168698821551118 206.70977985800462 204.0302567126571 H 0.0 **** 0.06
27500 H 11.49802766704478 206.49778474353934 203.453220599446 H 0.0 **** 0.06
27501 C 47.235424153846935 137.86848848716284 120.01332068903486 C 0.0 **** -0.24
27502 H 47.642875336353754 137.79871619880333 119.0042733588466 H 0.0 **** 0.06
27503 H 47.970686095699094 137.49496444400222 120.72750192513979 H 0.0 **** 0.06
27504 H 46.326490066311436 137.27099974504688 120.07963927537298 H 0.0 **** 0.06
27505 H 47.0042049486739 138.90868315427247 120.24041946126408 H 0.0 **** 0.06
27506 C 74.58810754124784 181.55078314900916 50.366335536213626 C 0.0 **** -0.24
27507 H 74.28591144748043 182.05788604253493 49.4504702081782 H 0.0 **** 0.06
27508 H 75.2195565608173 182.2133674676947 50.958129664831816 H 0.0 **** 0.06
27509 H 75.14355677324755 180.6473291749425 50.11442839876044 H 0.0 **** 0.06
27510 H 73.70190922745701 181.28261444383494 50.94218902787141 H 0.0 **** 0.06
27511 C 108.99719823217553 23.530693932369132 39.71588552762347 C 0.0 **** -0.24
27512 H 108.68325291853743 22.558425098148575 40.094750647321064 H 0.0 **** 0.06
27513 H 108.15803071088176 24.011852647438076 39.2121263368569 H 0.0 **** 0.06
27514 H 109.8170920851258 23.397683637515115 39.00952692120654 H 0.0 **** 0.06
27515 H 109.329213116556 24.15327733013015 40.545659073024666 H 0.0 **** 0.06
27516 C 8.682180244932226 103.88821911191862 16.14635443633138 C 0.0 **** -0.24
27517 H 9.320409247294776 103.467885124266 15.367893616189235 H 0.0 **** 0.06
27518 H 7.735812032463059 104.20574022937147 15.70819386257618 H 0.0 **** 0.06
27519 H 9.180108431997837 104.74650240598403 16.598166847329935 H 0.0 **** 0.06
27520 H 8.495316053143824 103.13255334154498 16.90883797115916 H 0.0 **** 0.06
27521 C 69.65508096653166 41.2604321293737 128.02255181531655 C 0.0 **** -0.24
27522 H 70.48835500081667 41.608068869539665 127.4119502953999 H 0.0 **** 0.06
27523 H 69.40795454828397 40.23451436749875 127.75029566910739 H 0.0 **** 0.06
27524 H 68.78860798353595 41.90089891549276 127.85257525177833 H 0.0 **** 0.06
27525 H 69.935384514288 41.30030621926282 129.07451621227654 H 0.0 **** 0.06
27526 C 61.79398915745875 79.05564700235475 140.38232510395108 C 0.0 **** -0.24
27527 H 61.85380971005486 79.73638535091426 141.23193557418375 H 0.0 **** 0.06
27528 H 60.8252442372592 79.16697284300842 139.89569077904753 H 0.0 **** 0.06
27529 H 61.91039279343096 78.02942582358675 140.72991741145006 H 0.0 **** 0.06
27530 H 62.58647965086743 79.29193092790105 139.67297128301396 H 0.0 **** 0.06
27531 C 40.62398031208585 39.86414495955103 92.92155297910013 C 0.0 **** -0.24
27532 H 39.56553171921243 40.08904211793475 93.04781445208151 H 0.0 **** 0.06
27533 H 41.19130577321795 40.79405347702681 92.88688164159167 H 0.0 **** 0.06
27534 H 40.770216821109486 39.31331800587776 91.99305544713285 H 0.0 **** 0.06
27535 H 40.9690970340496 39.26011198741486 93.7606839304115 H 0.0 **** 0.06
27536 C 96.75049258333495 203.05799415668488 206.39126393640043 C 0.0 **** -0.24
27537 H 96.57846522299538 204.08427343448184 206.71629251117895 H 0.0 **** 0.06
27538 H 96.6797213901123 202.38930335954086 207.24925997150547 H 0.0 **** 0.06
27539 H 97.74337606989486 202.97914807402282 205.94960592733705 H 0.0 **** 0.06
27540 H 95.99968971609691 202.7813395903766 205.6509582931596 H 0.0 **** 0.06
27541 C 33.54672839098106 137.87140443298705 117.63788697717821 C 0.0 **** -0.24
27542 H 34.16689212625039 138.75355391817783 117.79950188238242 H 0.0 **** 0.06
27543 H 33.562909544500144 137.24742217968912 118.5309168970674 H 0.0 **** 0.06
27544 H 33.93541089083243 137.30540634475733 116.7910308953045 H 0.0 **** 0.06
27545 H 32.52327269476183 138.18191121820132 117.429490486423 H 0.0 **** 0.06
27546 C 96.73271241798268 72.24412339049876 213.18186553481183 C 0.0 **** -0.24
27547 H 96.78775154551742 71.49891370166064 213.97484998315662 H 0.0 **** 0.06
27548 H 97.10512005021486 73.19911511300664 213.55414570104398 H 0.0 **** 0.06
27549 H 95.69651795630931 72.35748754158688 212.86192685754355 H 0.0 **** 0.06
27550 H 97.33990106222403 71.92162175797812 212.3369319525169 H 0.0 **** 0.06
27551 C 194.68260970356212 2.053264168470328 97.72159671443619 C 0.0 **** -0.24
27552 H 194.67039500035855 2.7701594494478883 96.90069593389838 H 0.0 **** 0.06
27553 H 195.21834384137406 2.4815604085599716 98.56896759396376 H 0.0 **** 0.06
27554 H 195.18271368746596 1.140413461845533 97.39856463648248 H 0.0 **** 0.06
27555 H 193.65871749505018 1.8231920973780191 98.01727514530238 H 0.0 **** 0.06
27556 C 99.49298085585413 201.97444869183997 21.909565777337804 C 0.0 **** -0.24
27557 H 100.23367392504768 201.99766076630314 22.709118852124675 H 0.0 **** 0.06
27558 H 99.33883271106855 202.98409621963813 21.528956589039865 H 0.0 **** 0.06
27559 H 98.55209908624651 201.5845790037492 22.299049118475438 H 0.0 **** 0.06
27560 H 99.84759524098443 201.33092102239618 21.105217039503458 H 0.0 **** 0.06
27561 C 17.210250007848913 172.45147548386925 106.83605967925725 C 0.0 **** -0.24
27562 H 16.169307862884438 172.7724849033246 106.77716508214117 H 0.0 **** 0.06
27563 H 17.813416841944417 173.25411199409712 107.25906620422462 H 0.0 **** 0.06
27564 H 17.573010603027697 172.21086542960495 105.83644040192199 H 0.0 **** 0.06
27565 H 17.281164195291865 171.56863602539687 107.47118313213129 H 0.0 **** 0.06
27566 C 191.2092200040972 12.194002660241011 87.56712057421868 C 0.0 **** -0.24
27567 H 191.35158953211436 11.112657638708384 87.56395455048022 H 0.0 **** 0.06
27568 H 191.6866274356766 12.624570731194893 86.68599093323508 H 0.0 **** 0.06
27569 H 191.65695434985435 12.616343007868196 88.46692540281163 H 0.0 **** 0.06
27570 H 190.14296171439926 12.41973796317724 87.55015089111396 H 0.0 **** 0.06
27571 C 102.90475013831575 48.14224933255133 57.05596655691075 C 0.0 **** -0.24
27572 H 102.31714584189466 47.27343774457256 56.76133334075945 H 0.0 **** 0.06
27573 H 102.28633598951045 48.81322916256403 57.65337192125878 H 0.0 **** 0.06
27574 H 103.25204736298043 48.664934849314534 56.164584130766414 H 0.0 **** 0.06
27575 H 103.76274871029624 47.817644855093306 57.64393212190575 H 0.0 **** 0.06
27576 C 0.4226683981995478 158.67298539732573 101.93492179097261 C 0.0 **** -0.24
27577 H 0.3337211599800156 159.3154681105341 102.81096716053237 H 0.0 **** 0.06
27578 H 1.0338932658494784 157.80462192244028 102.18280117723997 H 0.0 **** 0.06
27579 H 0.8924078431454703 159.22865679736972 101.1234045183753 H 0.0 **** 0.06
27580 H -0.5683890831297376 158.34342758145573 101.62475597599739 H 0.0 **** 0.06
27581 C 39.05830439070189 208.45768604977172 133.12272899479632 C 0.0 **** -0.24
27582 H 39.04924622576914 207.37586847157507 132.99421909682707 H 0.0 **** 0.06
27583 H 39.93427387832571 208.74719231997705 133.70268477109443 H 0.0 **** 0.06
27584 H 38.15542732742034 208.7682034952091 133.64784712313246 H 0.0 **** 0.06
27585 H 39.094249178200016 208.93856242843174 132.14508896853573 H 0.0 **** 0.06
27586 C 85.26401110034827 72.5763965683949 115.52672272852367 C 0.0 **** -0.24
27587 H 84.37875487360729 72.25046056874925 114.98172616522284 H 0.0 **** 0.06
27588 H 86.03967462004316 72.86925751065706 114.81821886025658 H 0.0 **** 0.06
27589 H 85.62996801610753 71.75890500946588 116.14854684896518 H 0.0 **** 0.06
27590 H 85.00880172732049 73.42777951008162 116.1584001892705 H 0.0 **** 0.06
27591 C 147.14835882723298 97.43235762735902 98.77806201663309 C 0.0 **** -0.24
27592 H 146.5359422915687 98.3298905084526 98.70059056541074 H 0.0 **** 0.06
27593 H 148.012711052638 97.52432013126601 98.12020012453915 H 0.0 **** 0.06
27594 H 146.55812751937952 96.56432460918755 98.48510158910675 H 0.0 **** 0.06
27595 H 147.4862730358717 97.31083824837053 99.80771641612613 H 0.0 **** 0.06
27596 C 101.31699032805194 178.817708002014 86.36534830991742 C 0.0 **** -0.24
27597 H 101.06691450560224 178.04156511353153 87.08984914894067 H 0.0 **** 0.06
27598 H 102.20515755468439 179.35399792268697 86.70040389557487 H 0.0 **** 0.06
27599 H 100.4832909774829 179.51467022149583 86.27883705399303 H 0.0 **** 0.06
27600 H 101.51107156148724 178.35998062463688 85.39608300310447 H 0.0 **** 0.06
27601 C 123.14868048077763 104.69653968977978 89.39689911395418 C 0.0 **** -0.24
27602 H 122.7295493800366 105.66690341809688 89.13018485283523 H 0.0 **** 0.06
27603 H 123.32606482915607 104.11729795937747 88.4901317974964 H 0.0 **** 0.06
27604 H 122.44645403264026 104.16245065615986 90.03844341305891 H 0.0 **** 0.06
27605 H 124.08914689231518 104.84003076409498 89.92764138113235 H 0.0 **** 0.06
27606 C 76.27526890177819 140.70182697745747 211.17452207925217 C 0.0 **** -0.24
27607 H 76.59345500985938 140.64871578651503 210.1329281307415 H 0.0 **** 0.06
27608 H 75.92248120699816 139.7213058034971 211.4963127394496 H 0.0 **** 0.06
27609 H 75.46957107064469 141.42934596846396 211.27154400949422 H 0.0 **** 0.06
27610 H 77.11755269126098 141.00699078018067 211.79503170819572 H 0.0 **** 0.06
27611 C 189.7919522278285 144.81507730610946 141.90158594212807 C 0.0 **** -0.24
27612 H 190.26100578147017 144.46168035092262 140.9827031901267 H 0.0 **** 0.06
27613 H 189.53975007597973 145.8704367702893 141.79678318826444 H 0.0 **** 0.06
27614 H 190.4828918623809 144.68668267086798 142.7343958632597 H 0.0 **** 0.06
27615 H 188.8848563414395 144.24105065611832 142.0903863459913 H 0.0 **** 0.06
27616 C 65.78414843897735 4.50741534266956 188.28778586105415 C 0.0 **** -0.24
27617 H 65.14463334293265 3.6939726831670328 187.94343627464502 H 0.0 **** 0.06
27618 H 66.78466802825503 4.3838063735764194 187.8728852500986 H 0.0 **** 0.06
27619 H 65.83615031411857 4.490135479461344 189.3763130056119 H 0.0 **** 0.06
27620 H 65.36855931178279 5.459671705443725 187.95866182829144 H 0.0 **** 0.06
27621 C 139.74088245122368 112.23848152910004 77.23196149795159 C 0.0 **** -0.24
27622 H 138.94692266977063 112.2504894370292 77.9789620464275 H 0.0 **** 0.06
27623 H 140.24080111677875 111.2695829858131 77.2486375844173 H 0.0 **** 0.06
27624 H 140.46187910404603 113.02388941632135 77.45546404701763 H 0.0 **** 0.06
27625 H 139.31218745086716 112.40907285008704 76.24369616968544 H 0.0 **** 0.06
27626 C 104.6136782096841 124.09662932385021 69.08366265684901 C 0.0 **** -0.24
27627 H 104.42408431116267 124.60959283195626 70.02550537008766 H 0.0 **** 0.06
27628 H 104.93204519406187 124.82020691346065 68.33293096122736 H 0.0 **** 0.06
27629 H 103.70182455420174 123.60332980652538 68.7483126606807 H 0.0 **** 0.06
27630 H 105.39791013097742 123.35231136122468 69.22667043337798 H 0.0 **** 0.06
27631 C 116.94915849613714 99.43565385143272 47.490940129084265 C 0.0 **** -0.24
27632 H 116.51087693162769 99.85667384652741 46.5858226898535 H 0.0 **** 0.06
27633 H 118.0124697453853 99.67598484369968 47.52470937894401 H 0.0 **** 0.06
27634 H 116.82081055223814 98.352486158665 47.48673072188666 H 0.0 **** 0.06
27635 H 116.45261769162933 99.85743162635019 48.36509107883683 H 0.0 **** 0.06
27636 C 212.33626680641942 186.93476983391412 90.1115954224403 C 0.0 **** -0.24
27637 H 212.98841214653535 187.74093600313228 89.77715905821981 H 0.0 **** 0.06
27638 H 211.8129904721771 187.2415759228287 91.01767271076272 H 0.0 **** 0.06
27639 H 212.93327865464107 186.0469100274251 90.31925126584883 H 0.0 **** 0.06
27640 H 211.60960733792575 186.70863009302866 89.33114172481976 H 0.0 **** 0.06
27641 C 128.78565887893996 13.864400151269606 50.18682339698489 C 0.0 **** -0.24
27642 H 129.20347474189816 14.713601740733864 49.645483658047326 H 0.0 **** 0.06
27643 H 129.58820590464398 13.17887036652563 50.46048073070435 H 0.0 **** 0.06
27644 H 128.06654785947813 13.347464829014527 49.55080581561414 H 0.0 **** 0.06
27645 H 128.2849376582102 14.21845307116945 51.088266093650034 H 0.0 **** 0.06
27646 C 7.92219989968315 9.042598541913037 119.61394806710557 C 0.0 **** -0.24
27647 H 8.675279027936 8.299319747772756 119.34980867442654 H 0.0 **** 0.06
27648 H 6.949383183207061 8.558671573657023 119.70138069196098 H 0.0 **** 0.06
27649 H 7.878904226263671 9.806854803507804 118.83735872643074 H 0.0 **** 0.06
27650 H 8.186029411506212 9.5050036284523 120.56499257607173 H 0.0 **** 0.06
27651 C 164.53510983631122 122.48529986590042 109.0416037657579 C 0.0 **** -0.24
27652 H 165.21152122829716 123.28529640228875 108.74260495756913 H 0.0 **** 0.06
27653 H 163.5201923852764 122.87539509378301 109.11318871375191 H 0.0 **** 0.06
27654 H 164.84247745552153 122.0930174682271 110.01157790075895 H 0.0 **** 0.06
27655 H 164.56731998460194 121.68602589726682 108.3014323263185 H 0.0 **** 0.06
27656 C 103.22442665928838 70.59369556188385 215.39297911221996 C 0.0 **** -0.24
27657 H 102.23601593578752 70.26399222514577 215.71275572945706 H 0.0 **** 0.06
27658 H 103.1829659994334 70.9050469794713 214.34904642709517 H 0.0 **** 0.06
27659 H 103.93332093651861 69.77270621267236 215.4997851348675 H 0.0 **** 0.06
27660 H 103.54442270740338 71.43293467050087 216.0104937949851 H 0.0 **** 0.06
27661 C 215.35842952163105 86.15722025388271 57.60520479054895 C 0.0 **** -0.24
27662 H 215.80293114225674 85.7316978576942 58.50436390879196 H 0.0 **** 0.06
27663 H 215.86357222982258 87.09149855858726 57.358212793832365 H 0.0 **** 0.06
27664 H 214.29958450826993 86.35112992504344 57.779111170348585 H 0.0 **** 0.06
27665 H 215.46870238571552 85.45531181167581 56.77860478396934 H 0.0 **** 0.06
27666 C 144.0497410334508 215.83989217613887 97.05656686771358 C 0.0 **** -0.24
27667 H 143.88466122379697 216.62883944367746 97.79060706344957 H 0.0 **** 0.06
27668 H 145.0879317160004 215.86440435925198 96.72500028184932 H 0.0 **** 0.06
27669 H 143.39092573139305 215.99601037507355 96.20153080646581 H 0.0 **** 0.06
27670 H 143.83541733192476 214.87229089749655 97.5094346620959 H 0.0 **** 0.06
27671 C 67.26629250712763 60.628156821679795 146.47044603454952 C 0.0 **** -0.24
27672 H 66.5286935257078 60.64552896740611 147.27189663419 H 0.0 **** 0.06
27673 H 66.83280518462745 61.06210458621774 145.56914518389732 H 0.0 **** 0.06
27674 H 67.56382010388792 59.598498194145975 146.27170354152832 H 0.0 **** 0.06
27675 H 68.14065407868358 61.20848060147756 146.768394557918 H 0.0 **** 0.06
27676 C 6.938518751750536 72.45608446522209 162.72496449957274 C 0.0 **** -0.24
27677 H 6.139605815026798 72.93655883452539 162.1597772347711 H 0.0 **** 0.06
27678 H 6.553369397436185 72.12816920970164 163.69050046325498 H 0.0 **** 0.06
27679 H 7.751253175723036 73.16489990898526 162.87895649662846 H 0.0 **** 0.06
27680 H 7.308224405404445 71.59399659663029 162.16926009701737 H 0.0 **** 0.06
27681 C 60.56462983378623 52.54237461553721 137.86913627228301 C 0.0 **** -0.24
27682 H 61.57366900692875 52.26860095937852 138.17627477165058 H 0.0 **** 0.06
27683 H 59.91778101317131 51.66702485479358 137.92209404153436 H 0.0 **** 0.06
27684 H 60.58616761727109 52.91755567057703 136.8456908921973 H 0.0 **** 0.06
27685 H 60.18161414788395 53.31865710723493 138.5323576774926 H 0.0 **** 0.06
27686 C 22.34989585525716 187.08736974058888 100.62749753096183 C 0.0 **** -0.24
27687 H 21.79414093807 187.48317438728765 99.77788274888549 H 0.0 **** 0.06
27688 H 23.1272673520823 187.79706172983612 100.91521269886418 H 0.0 **** 0.06
27689 H 22.809584182372134 186.13806850720385 100.35047412771321 H 0.0 **** 0.06
27690 H 21.671086683627607 186.93267522564693 101.46570027406936 H 0.0 **** 0.06
27691 C 202.65063467080273 32.652748043418924 134.9136364187338 C 0.0 **** -0.24
27692 H 202.83145962710483 31.90256740202402 135.682418865121 H 0.0 **** 0.06
27693 H 203.04413045407387 33.61439469005046 135.24500472494395 H 0.0 **** 0.06
27694 H 201.57879807905212 32.74069017193577 134.73736494791598 H 0.0 **** 0.06
27695 H 203.14817623890673 32.3552746067994 133.99087801626735 H 0.0 **** 0.06
27696 C 153.29108668993536 167.1960589969682 207.9107197763545 C 0.0 **** -0.24
27697 H 152.85362411275577 167.26176410834037 208.9071877776791 H 0.0 **** 0.06
27698 H 154.28476855938612 167.64385749141712 207.92144294437082 H 0.0 **** 0.06
27699 H 152.6587386884774 167.7310949672562 207.20166853320734 H 0.0 **** 0.06
27700 H 153.36626140979786 166.14979316206242 207.61479800068537 H 0.0 **** 0.06
27701 C 182.7727741664637 2.008184260392902 158.03505476751639 C 0.0 **** -0.24
27702 H 183.30688964480984 2.9498485684046116 158.16166883642853 H 0.0 **** 0.06
27703 H 183.468172214712 1.1775822494959414 158.15447831840237 H 0.0 **** 0.06
27704 H 182.33067498435423 1.9721985686868564 157.03920764779377 H 0.0 **** 0.06
27705 H 181.98558152103428 1.9332277278110368 158.78583197038802 H 0.0 **** 0.06
27706 C 144.23594817475544 174.96723479079296 202.99927292113406 C 0.0 **** -0.24
27707 H 145.10919474441204 174.3830173652404 202.71008690023842 H 0.0 **** 0.06
27708 H 144.05175854061844 174.84257106760128 204.0670094502556 H 0.0 **** 0.06
27709 H 143.3666877822896 174.62248173430726 202.4387679293582 H 0.0 **** 0.06
27710 H 144.4144267706106 176.0194466733774 202.78127141892833 H 0.0 **** 0.06
27711 C 88.39860076491055 211.83010335109284 28.594158990447397 C 0.0 **** -0.24
27712 H 88.14162766914603 211.96601612801072 29.644284062844562 H 0.0 **** 0.06
27713 H 89.45151648780201 211.5620603529493 28.51007832144846 H 0.0 **** 0.06
27714 H 88.21465639568578 212.75789734834623 28.051919270562962 H 0.0 **** 0.06
27715 H 87.78573517981289 211.03480742914022 28.17068963343816 H 0.0 **** 0.06
27716 C 109.89478968551028 86.40576486032437 134.2254572491887 C 0.0 **** -0.24
27717 H 110.67545348058378 87.07444506294429 134.5880699372981 H 0.0 **** 0.06
27718 H 109.12790292018194 86.29401954608902 134.99185323576722 H 0.0 **** 0.06
27719 H 110.32746601478318 85.43194397671651 133.99792878089744 H 0.0 **** 0.06
27720 H 109.44798548319868 86.82499231399454 133.32334888435855 H 0.0 **** 0.06
27721 C 70.94571216302052 93.11118015497875 165.84805397412077 C 0.0 **** -0.24
27722 H 70.77967655021217 92.53994412205826 164.9349046434233 H 0.0 **** 0.06
27723 H 71.7668587216707 93.81145790193462 165.69436745494312 H 0.0 **** 0.06
27724 H 71.19433929539326 92.43104066330766 166.66201278006633 H 0.0 **** 0.06
27725 H 70.03912596160365 93.66361332175292 166.09987977283117 H 0.0 **** 0.06
27726 C 139.81041812571573 140.9529564576066 197.54421941462786 C 0.0 **** -0.24
27727 H 140.30331226231675 141.89394415479666 197.7892330185835 H 0.0 **** 0.06
27728 H 139.6542482918249 140.8959275172761 196.46601820220684 H 0.0 **** 0.06
27729 H 138.84922551480878 140.90241286838028 198.054943638778 H 0.0 **** 0.06
27730 H 140.43724091064092 140.1211473034013 197.86531264212968 H 0.0 **** 0.06
27731 C 141.84640870151605 189.07008780132713 196.17406652393896 C 0.0 **** -0.24
27732 H 142.20750774916235 189.11758538527835 195.14687978912235 H 0.0 **** 0.06
27733 H 142.08170697587622 188.09247394779004 196.59667750237324 H 0.0 **** 0.06
27734 H 140.7676626826775 189.2216115357866 196.18705496799384 H 0.0 **** 0.06
27735 H 142.3292982857044 189.84785036556553 196.76551743193528 H 0.0 **** 0.06
27736 C 87.87824224045549 193.50761891045673 204.85269254958428 C 0.0 **** -0.24
27737 H 87.01492807888191 194.10236858481733 204.55344076897072 H 0.0 **** 0.06
27738 H 88.30444366232898 193.01805772623663 203.97633568609774 H 0.0 **** 0.06
27739 H 87.5677006525916 192.7537590768348 205.5759389843737 H 0.0 **** 0.06
27740 H 88.62727034591448 194.15822255685814 205.3056704222882 H 0.0 **** 0.06
27741 C 185.84958558479104 118.97924601427424 142.12254654478573 C 0.0 **** -0.24
27742 H 186.25383116424948 119.65942499858464 142.8723619890646 H 0.0 **** 0.06
27743 H 184.77143913791897 119.1211249033383 142.04691084489377 H 0.0 **** 0.06
27744 H 186.06100752942282 117.95009783966468 142.4146902614251 H 0.0 **** 0.06
27745 H 186.31253483099405 119.18505178544252 141.1582550483456 H 0.0 **** 0.06
27746 C 117.64068027650079 101.08376709045781 74.51303177565717 C 0.0 **** -0.24
27747 H 118.6789288931456 101.12127445502121 74.84288499368927 H 0.0 **** 0.06
27748 H 117.58628906466363 101.35142514278267 73.45761010317824 H 0.0 **** 0.06
27749 H 117.04915427352769 101.78816502113118 75.09755010180788 H 0.0 **** 0.06
27750 H 117.25115041516982 100.07659486959203 74.65342302519684 H 0.0 **** 0.06
27751 C 67.32782322295468 87.91730824033085 152.5123422545281 C 0.0 **** -0.24
27752 H 66.89984788585697 88.00977715275961 153.51053449438388 H 0.0 **** 0.06
27753 H 68.2481465151111 88.50019434051357 152.45713358179057 H 0.0 **** 0.06
27754 H 66.61601410370152 88.29115196217278 151.77663390253326 H 0.0 **** 0.06
27755 H 67.5476446673659 86.86994681594193 152.30628956737456 H 0.0 **** 0.06
27756 C 127.60386263437489 47.933963101799705 215.27925638733262 C 0.0 **** -0.24
27757 H 126.70670518825547 48.43344751134937 215.64586379258373 H 0.0 **** 0.06
27758 H 128.42311111274415 48.6506139592708 215.2282897006341 H 0.0 **** 0.06
27759 H 127.4119171152975 47.52793347563862 214.28674896945972 H 0.0 **** 0.06
27760 H 127.87090096276724 47.1234809540086 215.95855777995655 H 0.0 **** 0.06
27761 C 188.14074002155795 173.179882792379 113.72178162991906 C 0.0 **** -0.24
27762 H 188.95000896320943 172.45138631339915 113.6848658076695 H 0.0 **** 0.06
27763 H 188.04765560501963 173.5686104355163 114.73624269921834 H 0.0 **** 0.06
27764 H 187.2063083612975 172.70056796006097 113.42936941112805 H 0.0 **** 0.06
27765 H 188.35782955615397 173.99973095380585 113.03768569464398 H 0.0 **** 0.06
27766 C 145.45177271895005 153.56125277415134 165.23285530118335 C 0.0 **** -0.24
27767 H 145.26363890879566 154.54028516974557 165.67466339448345 H 0.0 **** 0.06
27768 H 145.35117271310565 153.62713006127785 164.14948003861866 H 0.0 **** 0.06
27769 H 144.7300437797589 152.8424908162712 165.62312412139437 H 0.0 **** 0.06
27770 H 146.46058839658428 153.2364443831126 165.48537570677667 H 0.0 **** 0.06
27771 C 147.86196086570197 186.90848709873268 171.5084029858054 C 0.0 **** -0.24
27772 H 147.30581086257854 186.2235178538492 170.86978227358605 H 0.0 **** 0.06
27773 H 147.19524223062598 187.69302888535816 171.86775601719125 H 0.0 **** 0.06
27774 H 148.6771238782723 187.35606063184628 170.9389643600467 H 0.0 **** 0.06
27775 H 148.27089460037496 186.3623349131267 172.35945536740218 H 0.0 **** 0.06
27776 C 144.04254097558953 78.83330461901151 11.054213118791353 C 0.0 **** -0.24
27777 H 143.1558903615038 79.00626708529232 10.443980526794107 H 0.0 **** 0.06
27778 H 143.881175793568 77.96376260568967 11.691989815838681 H 0.0 **** 0.06
27779 H 144.2330417451132 79.7096325438602 11.67483537412592 H 0.0 **** 0.06
27780 H 144.8999943086227 78.65467136294895 10.405179157520678 H 0.0 **** 0.06
27781 C 36.42764561354801 12.949572158410604 158.2077902784722 C 0.0 **** -0.24
27782 H 36.525243263229584 12.81947233929543 159.28531283619253 H 0.0 **** 0.06
27783 H 35.56098133735017 13.575184262410488 157.99524226720888 H 0.0 **** 0.06
27784 H 36.29884531292612 11.976762406199555 157.7349078626604 H 0.0 **** 0.06
27785 H 37.3261321602393 13.426931202185926 157.81731441847194 H 0.0 **** 0.06
27786 C 122.53879421278509 138.68306737646066 10.301131653988392 C 0.0 **** -0.24
27787 H 122.79082180698697 138.72911180703795 9.241516561488936 H 0.0 **** 0.06
27788 H 122.3866976631623 139.69381190814585 10.681841904215759 H 0.0 **** 0.06
27789 H 123.35274850315506 138.20726508975065 10.848031765735513 H 0.0 **** 0.06
27790 H 121.62529702299122 138.10341974137265 10.432899007448412 H 0.0 **** 0.06
27791 C 192.78355339602336 190.54320967424326 7.605912106021378 C 0.0 **** -0.24
27792 H 192.4391142375597 191.5076988031824 7.232371575220924 H 0.0 **** 0.06
27793 H 192.8213885832116 189.82780852857024 6.784759363710123 H 0.0 **** 0.06
27794 H 192.09677849873475 190.18268811624233 8.371284938014668 H 0.0 **** 0.06
27795 H 193.7792544750093 190.65629870743146 8.036163647889055 H 0.0 **** 0.06
27796 C 80.17958188321137 145.58442147689783 100.37759476637463 C 0.0 **** -0.24
27797 H 79.40313693105537 145.33991827321495 101.10326244213074 H 0.0 **** 0.06
27798 H 79.8120111459487 146.3543222046959 99.69889986766093 H 0.0 **** 0.06
27799 H 80.44018691531494 144.6924208792945 99.80928053845606 H 0.0 **** 0.06
27800 H 81.06194772859374 145.9535888750966 100.90124550873055 H 0.0 **** 0.06
27801 C 178.06704635995789 160.16135337848047 69.23112335591745 C 0.0 **** -0.24
27802 H 178.77225882155608 160.9913338358911 69.27504329785161 H 0.0 **** 0.06
27803 H 177.43789496472988 160.26554817968696 68.34778984999532 H 0.0 **** 0.06
27804 H 177.4432826145962 160.16745799316072 70.12492124048585 H 0.0 **** 0.06
27805 H 178.61583448346352 159.22134683249104 69.17891784328694 H 0.0 **** 0.06
27806 C 75.3342791638392 12.09900510180313 49.128360437235756 C 0.0 **** -0.24
27807 H 75.2786664166905 12.968929924673816 48.47575096604662 H 0.0 **** 0.06
27808 H 74.33398639797076 11.695295914261692 49.283203588929894 H 0.0 **** 0.06
27809 H 75.76032734756274 12.392307626599475 50.08839727486034 H 0.0 **** 0.06
27810 H 75.96636276421464 11.338996718166612 48.66804018845136 H 0.0 **** 0.06
27811 C 61.26104295060105 4.816336703911389 5.5775863736932365 C 0.0 **** -0.24
27812 H 60.2728299284945 5.275632637580827 5.597894056815392 H 0.0 **** 0.06
27813 H 61.778480616699596 5.111674532183741 4.664458793977815 H 0.0 **** 0.06
27814 H 61.158408791988336 3.731962404175931 5.602580892641299 H 0.0 **** 0.06
27815 H 61.83386338765081 5.148474135617221 6.443196334080596 H 0.0 **** 0.06
27816 C 164.22137551348825 95.56841063232638 122.68219007118569 C 0.0 **** -0.24
27817 H 165.1936586316681 95.25930415474959 122.29695263739256 H 0.0 **** 0.06
27818 H 164.1797847080141 96.65607063267929 122.73387230578783 H 0.0 **** 0.06
27819 H 164.07721551772804 95.1512049700407 123.67875038821688 H 0.0 **** 0.06
27820 H 163.43559764778885 95.2049827481513 122.01950804703665 H 0.0 **** 0.06
27821 C 141.7725708467707 94.99610584259268 180.24532411758784 C 0.0 **** -0.24
27822 H 140.9855804509997 94.44933970206002 179.72590324658154 H 0.0 **** 0.06
27823 H 141.71697364752515 96.05245403174642 179.9808310076401 H 0.0 **** 0.06
27824 H 142.74415702879986 94.59809530991016 179.95152647684398 H 0.0 **** 0.06
27825 H 141.64419013117532 94.8831024805326 181.32143319869638 H 0.0 **** 0.06
27826 C 157.80826647351392 173.84987107032723 74.60401783247205 C 0.0 **** -0.24
27827 H 158.17690630080114 173.16962862244117 73.83595531288465 H 0.0 **** 0.06
27828 H 158.64149506715117 174.18445310839328 75.22255087039345 H 0.0 **** 0.06
27829 H 157.07775001314945 173.33417165314376 75.22511033956452 H 0.0 **** 0.06
27830 H 157.33943754272008 174.7120558691636 74.13001473274126 H 0.0 **** 0.06
27831 C 88.52500551034962 60.25411704377785 73.13043037025506 C 0.0 **** -0.24
27832 H 87.79956287728578 59.484545316599736 73.39654406818846 H 0.0 **** 0.06
27833 H 89.16910064836925 59.88354482784007 72.33260405275388 H 0.0 **** 0.06
27834 H 89.13107456448789 60.49900336347366 74.00234041077795 H 0.0 **** 0.06
27835 H 87.99884396178601 61.145556444720796 72.78964312256846 H 0.0 **** 0.06
27836 C 138.98479898938325 214.56443146609013 129.06554079612795 C 0.0 **** -0.24
27837 H 139.78276651779868 214.39280063973425 129.78723865671947 H 0.0 **** 0.06
27838 H 138.02789187359758 214.6030723285228 129.58570594871026 H 0.0 **** 0.06
27839 H 138.97096504802755 213.75227785568575 128.33850209263892 H 0.0 **** 0.06
27840 H 139.15808939270215 215.5094772020355 128.55156694823245 H 0.0 **** 0.06
27841 C 57.77160315007484 135.85996176218435 97.29842370816117 C 0.0 **** -0.24
27842 H 57.87426842464498 135.70577891859205 98.3729490185227 H 0.0 **** 0.06
27843 H 57.99699861366258 136.8997404991058 97.05819209866785 H 0.0 **** 0.06
27844 H 56.75066551492148 135.62956156805222 96.99401242111297 H 0.0 **** 0.06
27845 H 58.46451353967507 135.20585186837286 96.76944679906653 H 0.0 **** 0.06
27846 C 211.30446810214843 20.746362452176754 108.30805694912296 C 0.0 **** -0.24
27847 H 211.93017158199046 20.141476226982505 108.96372830955802 H 0.0 **** 0.06
27848 H 210.87294072125604 20.112617635410118 107.53325260958376 H 0.0 **** 0.06
27849 H 211.90958920314938 21.52592266443476 107.84564105550943 H 0.0 **** 0.06
27850 H 210.50429697504907 21.20428026377614 108.89055810931721 H 0.0 **** 0.06
27851 C 127.72672088231428 14.32692247683579 8.370583246270542 C 0.0 **** -0.24
27852 H 127.32591257337782 13.762613763792558 7.528974370023974 H 0.0 **** 0.06
27853 H 128.41778874761064 13.69919719541798 8.93306996756661 H 0.0 **** 0.06
27854 H 126.9100260898312 14.641772335367051 9.019629706060314 H 0.0 **** 0.06
27855 H 128.2541976078801 15.205497618841406 7.999251643814432 H 0.0 **** 0.06
27856 C 60.92045690031378 7.505535176853471 116.96053262278916 C 0.0 **** -0.24
27857 H 61.197714330463214 8.063685727622925 117.85447524241401 H 0.0 **** 0.06
27858 H 61.21280143815346 6.462347908055335 117.07924287886779 H 0.0 **** 0.06
27859 H 61.43010838332387 7.930086797232491 116.09478008994854 H 0.0 **** 0.06
27860 H 59.842562523993905 7.567093224885866 116.81367404521241 H 0.0 **** 0.06
27861 C 54.41219512508388 153.913505867362 104.50001986492832 C 0.0 **** -0.24
27862 H 54.16756044777384 154.49161028419314 105.3916634658763 H 0.0 **** 0.06
27863 H 54.949986061487834 154.54595382368183 103.7928355547585 H 0.0 **** 0.06
27864 H 53.4939943433572 153.5509015764465 104.03885766485557 H 0.0 **** 0.06
27865 H 55.038201884260786 153.0657824088135 104.77872869789438 H 0.0 **** 0.06
27866 C 114.75074198257967 156.19753484923314 35.933537574698335 C 0.0 **** -0.24
27867 H 114.40997015082401 157.0813849783765 36.47320844877774 H 0.0 **** 0.06
27868 H 114.37851041699624 156.23064239282093 34.9095841141733 H 0.0 **** 0.06
27869 H 114.37483978463088 155.30146328810082 36.42884198260708 H 0.0 **** 0.06
27870 H 115.84050432024749 156.17636766276576 35.92294819555684 H 0.0 **** 0.06
27871 C 165.03940680411097 99.22416362309878 101.52185231568326 C 0.0 **** -0.24
27872 H 164.84569543852948 99.80861444466905 100.62295117307029 H 0.0 **** 0.06
27873 H 164.66453267642248 99.76255966102644 102.39296267067546 H 0.0 **** 0.06
27874 H 166.11261194554558 99.06525971771282 101.62698751157255 H 0.0 **** 0.06
27875 H 164.53596191597364 98.26093252495946 101.44484440979168 H 0.0 **** 0.06
27876 C 146.1651104323971 48.364344806197806 30.938638911821172 C 0.0 **** -0.24
27877 H 145.26278239641925 48.483002338298306 31.537888133679118 H 0.0 **** 0.06
27878 H 146.55730039084528 49.34715360914355 30.675954613419634 H 0.0 **** 0.06
27879 H 145.92673579065848 47.81330781129256 30.028735124632064 H 0.0 **** 0.06
27880 H 146.91189080746227 47.815168249100154 31.511322334517274 H 0.0 **** 0.06
27881 C 80.49293158184908 184.62381164139654 48.81415151508203 C 0.0 **** -0.24
27882 H 81.1535511492656 185.19226688398805 49.46953047230049 H 0.0 **** 0.06
27883 H 79.5222288737218 185.11734088744004 48.761603624906485 H 0.0 **** 0.06
27884 H 80.36736280200579 183.61605420664796 49.21072128133105 H 0.0 **** 0.06
27885 H 80.92837577954266 184.57101564793732 47.81672780570106 H 0.0 **** 0.06
27886 C 138.41248742373193 47.11013823051296 201.45249249014472 C 0.0 **** -0.24
27887 H 139.0703063052364 47.58491986884813 200.72453174178742 H 0.0 **** 0.06
27888 H 138.9704006058651 46.35634067396076 202.00931138863098 H 0.0 **** 0.06
27889 H 137.57836623019784 46.63689740503122 200.93390681595946 H 0.0 **** 0.06
27890 H 138.03077903024842 47.86331019107605 202.14182901006984 H 0.0 **** 0.06
27891 C 47.75860318102485 90.84199866467291 146.97010616227806 C 0.0 **** -0.24
27892 H 47.44577215936158 90.621964475642 145.9499484168681 H 0.0 **** 0.06
27893 H 47.09764518008427 91.59570038996118 147.39827595294526 H 0.0 **** 0.06
27894 H 48.78197960911717 91.2178684368058 146.9623765733848 H 0.0 **** 0.06
27895 H 47.709914982489806 89.93252618375108 147.56873409215143 H 0.0 **** 0.06
27896 C 57.50180967745774 215.2140132637326 53.29170467341895 C 0.0 **** -0.24
27897 H 58.42839859499503 214.65219356098098 53.16881546874136 H 0.0 **** 0.06
27898 H 57.45049884537599 215.99827807454537 52.53534227994426 H 0.0 **** 0.06
27899 H 57.47970640819011 215.6642788058957 54.284403788691435 H 0.0 **** 0.06
27900 H 56.65227484655276 214.5419960144848 53.17773759926747 H 0.0 **** 0.06
27901 C 9.820698296570626 128.29178699848194 205.27694777622858 C 0.0 **** -0.24
27902 H 9.951127998182812 127.79195747748041 206.2364750920987 H 0.0 **** 0.06
27903 H 9.168043943760054 127.69285722963717 204.64109513658948 H 0.0 **** 0.06
27904 H 10.790558479993791 128.40956984851113 204.7945790936895 H 0.0 **** 0.06
27905 H 9.372944824082126 129.27316384147042 205.4369930046843 H 0.0 **** 0.06
27906 C 131.02132856791013 62.740242916678454 76.8072932324834 C 0.0 **** -0.24
27907 H 131.4134794920227 61.83362281714044 77.26699723180798 H 0.0 **** 0.06
27908 H 131.76059721907882 63.14713517112554 76.11706015729226 H 0.0 **** 0.06
27909 H 130.80486014417727 63.47632071711462 77.58190800123691 H 0.0 **** 0.06
27910 H 130.1057768875316 62.505761285230335 76.26359328398672 H 0.0 **** 0.06
27911 C 55.48354045477038 138.38701632378098 65.53750068943555 C 0.0 **** -0.24
27912 H 54.68460437743687 138.18010078921662 66.2498385656823 H 0.0 **** 0.06
27913 H 55.544182844905265 139.4607004110938 65.36294955600681 H 0.0 **** 0.06
27914 H 55.27263041648919 137.87634482111406 64.59757424581613 H 0.0 **** 0.06
27915 H 56.430344873985916 138.02856039286058 65.94046453465768 H 0.0 **** 0.06
27916 C 199.67736704769197 107.95535972451961 185.96591620633174 C 0.0 **** -0.24
27917 H 200.71992582827562 107.6623121887094 186.09486383134777 H 0.0 **** 0.06
27918 H 199.63267045021425 108.94835697487127 185.5185060884624 H 0.0 **** 0.06
27919 H 199.18270188644823 107.97121024374894 186.93635489688182 H 0.0 **** 0.06
27920 H 199.17712722439376 107.23907717217384 185.31379001535208 H 0.0 **** 0.06
27921 C 103.29169307189046 31.804765124490658 109.45269354332989 C 0.0 **** -0.24
27922 H 102.97218050546168 31.68474939422225 108.4173549096485 H 0.0 **** 0.06
27923 H 103.00983987766288 32.796277633805076 109.80698559339176 H 0.0 **** 0.06
27924 H 104.37428422319373 31.690313056708646 109.51307790323638 H 0.0 **** 0.06
27925 H 102.81062649186784 31.04699499066659 110.07102153419505 H 0.0 **** 0.06
27926 C 63.23718442118776 26.965563217787462 193.84847176906965 C 0.0 **** -0.24
27927 H 63.61014540127191 27.97272758507887 193.66677104256772 H 0.0 **** 0.06
27928 H 63.290850836128925 26.38622424278651 192.92627741911872 H 0.0 **** 0.06
27929 H 62.2013870752173 27.016299376613745 194.18496671212623 H 0.0 **** 0.06
27930 H 63.845514564629084 26.485065464444517 194.61513303235603 H 0.0 **** 0.06
27931 C 4.298071709477426 47.42777900966587 71.63743456542927 C 0.0 **** -0.24
27932 H 3.784710686153076 47.899763925243064 70.79971454325654 H 0.0 **** 0.06
27933 H 4.635747739636884 46.43375814075935 71.34319561955566 H 0.0 **** 0.06
27934 H 3.615290752253287 47.34477807713719 72.48240978913687 H 0.0 **** 0.06
27935 H 5.158144008324896 48.03420286073336 71.92371399671107 H 0.0 **** 0.06
27936 C 204.31211224348635 8.50830502257324 165.51907928981956 C 0.0 **** -0.24
27937 H 205.02776294307222 9.303691933779675 165.312774026414 H 0.0 **** 0.06
27938 H 204.75825428983399 7.786086909688052 166.20244405371926 H 0.0 **** 0.06
27939 H 204.0430304527212 8.011121852790922 164.5873781495506 H 0.0 **** 0.06
27940 H 203.4180948798715 8.935016332167805 165.97386225975748 H 0.0 **** 0.06
27941 C 163.6917545117919 104.68778400430931 91.38616052306405 C 0.0 **** -0.24
27942 H 162.921250503617 103.97768286928245 91.08242029974717 H 0.0 **** 0.06
27943 H 164.48552878222443 104.15834051259962 91.91369643953858 H 0.0 **** 0.06
27944 H 163.25443062342265 105.43751693391327 92.04393742470323 H 0.0 **** 0.06
27945 H 164.1035816629025 105.17509254838028 90.5021843222364 H 0.0 **** 0.06
27946 C 176.86937180544044 28.2586558859133 20.88803855344935 C 0.0 **** -0.24
27947 H 176.645870485319 27.396527112304256 21.51764501788074 H 0.0 **** 0.06
27948 H 175.95641629461718 28.59108794610475 20.39216021389217 H 0.0 **** 0.06
27949 H 177.6085482324048 27.977967031582637 20.138037149311884 H 0.0 **** 0.06
27950 H 177.26423787941314 29.066183054994383 21.504283460907516 H 0.0 **** 0.06
27951 C 13.628344853463432 27.541492633330193 139.73378903823453 C 0.0 **** -0.24
27952 H 14.157032816791514 27.73235586419206 140.6673373177441 H 0.0 **** 0.06
27953 H 12.553380744428637 27.59459039823581 139.90783195744598 H 0.0 **** 0.06
27954 H 13.888840095637704 26.54824523750267 139.36686535149994 H 0.0 **** 0.06
27955 H 13.916072372469756 28.28908159700096 138.99464781273565 H 0.0 **** 0.06
27956 C 115.84128685788654 126.97502107488778 16.478958158609686 C 0.0 **** -0.24
27957 H 116.66478558896686 127.68830807863473 16.508616578435976 H 0.0 **** 0.06
27958 H 115.40487966082647 126.88108207698268 17.473802555864438 H 0.0 **** 0.06
27959 H 116.21284548847397 126.00414094238685 16.151611119175257 H 0.0 **** 0.06
27960 H 115.08171231320777 127.3280614262935 15.780434585531708 H 0.0 **** 0.06
27961 C 42.885658272357944 85.86130547183586 55.159396630214346 C 0.0 **** -0.24
27962 H 42.223625919811525 85.88857196405525 56.02435144034111 H 0.0 **** 0.06
27963 H 42.62342517367938 85.01156760898584 54.52880285505334 H 0.0 **** 0.06
27964 H 43.91814555456577 85.76040958539124 55.4943879351388 H 0.0 **** 0.06
27965 H 42.77668804885343 86.78413409482295 54.589657251693765 H 0.0 **** 0.06
27966 C 101.74431555722477 138.19918560281087 128.25414874896097 C 0.0 **** -0.24
27967 H 101.31925551880975 139.15653947272295 127.95208472598624 H 0.0 **** 0.06
27968 H 101.81739949165403 137.54438545714027 127.38619101182898 H 0.0 **** 0.06
27969 H 101.10471709321594 137.7386682600611 129.005384846818 H 0.0 **** 0.06
27970 H 102.73812304614525 138.36089225865118 128.6729981112794 H 0.0 **** 0.06
27971 C 154.29829763944707 160.03675912006148 155.61922247923508 C 0.0 **** -0.24
27972 H 154.68373945547 159.0663199462404 155.30617367046358 H 0.0 **** 0.06
27973 H 153.36947004211453 160.24607489146263 155.08677025437277 H 0.0 **** 0.06
27974 H 155.03162832175246 160.810103063985 155.3891042420501 H 0.0 **** 0.06
27975 H 154.10738305023233 160.02380176076377 156.69175678802287 H 0.0 **** 0.06
27976 C 132.9043540759581 149.0995444348302 23.675483914876594 C 0.0 **** -0.24
27977 H 133.2247619835344 150.10068140841537 23.387611261541224 H 0.0 **** 0.06
27978 H 131.83284025628268 148.99827757211403 23.506805901554515 H 0.0 **** 0.06
27979 H 133.12350632480712 148.93791897605234 24.731598806230863 H 0.0 **** 0.06
27980 H 133.43906042210824 148.36171372476065 23.07642121230873 H 0.0 **** 0.06
27981 C 18.08004880112793 161.65641307533167 65.37500706177832 C 0.0 **** -0.24
27982 H 17.45556192664324 160.79672974574132 65.61722771827203 H 0.0 **** 0.06
27983 H 17.47384545522948 162.562827959446 65.3965412718577 H 0.0 **** 0.06
27984 H 18.505934636453276 161.52758574799392 64.38066864472808 H 0.0 **** 0.06
27985 H 18.883290049451602 161.7391838728369 66.10663990392698 H 0.0 **** 0.06
27986 C 128.97934255239238 204.0075459474301 188.50943517653556 C 0.0 **** -0.24
27987 H 129.27913015093986 204.8630530739192 187.90489810227206 H 0.0 **** 0.06
27988 H 128.14825330873055 203.4940064824823 188.02456297902407 H 0.0 **** 0.06
27989 H 128.66978025759244 204.3505614417311 189.49665333516387 H 0.0 **** 0.06
27990 H 129.82118436063604 203.3214313434752 188.60968626380821 H 0.0 **** 0.06
27991 C 64.96953167827215 96.05932313313063 8.498973320191908 C 0.0 **** -0.24
27992 H 65.9321031538452 95.87327913206677 8.975331295085255 H 0.0 **** 0.06
27993 H 64.35021517212557 95.164732266418 8.572215397188074 H 0.0 **** 0.06
27994 H 65.12557775604905 96.30738788235281 7.449312598241988 H 0.0 **** 0.06
27995 H 64.47085845729111 96.88897552029191 8.998729309612315 H 0.0 **** 0.06
27996 C 145.23391991421397 22.80568084313208 139.09444808437456 C 0.0 **** -0.24
27997 H 145.341101803176 22.185721635239418 138.20482583549784 H 0.0 **** 0.06
27998 H 144.91869124589527 23.807737158793884 138.8030545900233 H 0.0 **** 0.06
27999 H 146.18903440045864 22.861734586202033 139.6164647786137 H 0.0 **** 0.06
28000 H 144.4846117700613 22.367107585823078 139.7543427422791 H 0.0 **** 0.06
28001 C 16.980806729291956 45.77895974930645 191.25785219610344 C 0.0 **** -0.24
28002 H 17.29285934823612 45.549133180369225 192.27558694147038 H 0.0 **** 0.06
28003 H 17.65870667669209 46.517124302667625 190.82834212184048 H 0.0 **** 0.06
28004 H 15.967726606343632 46.1804274686167 191.26940484429548 H 0.0 **** 0.06
28005 H 17.00422363799342 44.87077337955698 190.65625990173817 H 0.0 **** 0.06
28006 C 13.336685286531576 4.209130294465503 186.34132865778093 C 0.0 **** -0.24
28007 H 12.971744196687865 4.183000400127142 187.3682796657885 H 0.0 **** 0.06
28008 H 14.348079343169559 3.80330698018777 186.30612000658368 H 0.0 **** 0.06
28009 H 13.345250278116964 5.2385726381072 185.98487078074774 H 0.0 **** 0.06
28010 H 12.68221157783853 3.610272399079392 185.70800131597724 H 0.0 **** 0.06
28011 C 149.57309832697877 56.46382790572062 113.13523882985565 C 0.0 **** -0.24
28012 H 150.43747997812767 55.81181874669083 113.25625343332395 H 0.0 **** 0.06
28013 H 148.80707521114482 56.190459605722126 113.8612915172785 H 0.0 **** 0.06
28014 H 149.17432164589184 56.35369767013435 112.12688639964908 H 0.0 **** 0.06
28015 H 149.87351647275108 57.49933560033516 113.2965239691709 H 0.0 **** 0.06
28016 C 38.873550179377276 34.12831574421912 103.94621173216656 C 0.0 **** -0.24
28017 H 39.500425016581204 33.84249190282732 103.10201045642528 H 0.0 **** 0.06
28018 H 38.36937667186592 35.06851045283483 103.7225979538507 H 0.0 **** 0.06
28019 H 39.49432542197039 34.25134976623188 104.83410073247892 H 0.0 **** 0.06
28020 H 38.1312016251118 33.351437151492036 104.1268090691806 H 0.0 **** 0.06
28021 C 113.41103264811328 6.259748847238484 9.507583914582895 C 0.0 **** -0.24
28022 H 113.57127620212053 7.253168052487496 9.92518707932848 H 0.0 **** 0.06
28023 H 113.66526348985376 6.266327887268147 8.44715779727619 H 0.0 **** 0.06
28024 H 112.36484779833829 5.978982465723902 9.629590626421887 H 0.0 **** 0.06
28025 H 114.04301795319334 5.540045826938837 10.029238299306229 H 0.0 **** 0.06
28026 C 194.86271463415588 16.141934664741882 144.7057929579487 C 0.0 **** -0.24
28027 H 194.7978026048093 17.192873876182034 144.42483507701758 H 0.0 **** 0.06
28028 H 195.36213441283516 16.055325643629672 145.67143777910604 H 0.0 **** 0.06
28029 H 195.4320388154282 15.598502140294315 143.9527483524186 H 0.0 **** 0.06
28030 H 193.85914826074287 15.722650479251215 144.77597442754654 H 0.0 **** 0.06
28031 C 188.85768069818218 30.863186870019447 6.319287677198474 C 0.0 **** -0.24
28032 H 188.56151815376245 29.824784847487322 6.462769723841518 H 0.0 **** 0.06
28033 H 189.05510104697552 31.321708075898613 7.288615618788413 H 0.0 **** 0.06
28034 H 188.05626451248506 31.404102141043438 5.817533874710932 H 0.0 **** 0.06
28035 H 189.76017701433904 30.902113235869408 5.708961304684635 H 0.0 **** 0.06
28036 C 24.510602781229522 216.1358854210138 18.37503440294745 C 0.0 **** -0.24
28037 H 24.63607826140418 215.1098949174181 18.72036977547569 H 0.0 **** 0.06
28038 H 23.448275041845307 216.3481503781773 18.248158377896175 H 0.0 **** 0.06
28039 H 25.02330623004923 216.26487296491706 17.42262561569808 H 0.0 **** 0.06
28040 H 24.932603598238558 216.82077053886786 19.11107301338228 H 0.0 **** 0.06
28041 C 128.27324278272238 192.83768330141828 70.20654664978021 C 0.0 **** -0.24
28042 H 129.0397291636212 193.60597757872614 70.1114065087677 H 0.0 **** 0.06
28043 H 127.29895615456165 193.26525035034138 69.9673267898573 H 0.0 **** 0.06
28044 H 128.26351552264936 192.45996837222404 71.2289927120723 H 0.0 **** 0.06
28045 H 128.4901332815362 192.02068416291115 69.51898789469918 H 0.0 **** 0.06
28046 C 60.163551826865444 24.77244658938602 109.34216262882114 C 0.0 **** -0.24
28047 H 59.57509997741079 23.890552107814244 109.59486339452349 H 0.0 **** 0.06
28048 H 60.11776681219669 25.486631824248434 110.16393711654865 H 0.0 **** 0.06
28049 H 59.76153152668007 25.230229182648884 108.43839666901863 H 0.0 **** 0.06
28050 H 61.19992815200172 24.479552138032716 109.17128809598353 H 0.0 **** 0.06
28051 C 113.08073374666314 37.638822522754595 15.709519195300587 C 0.0 **** -0.24
28052 H 113.46073119338 37.78762407596031 14.69852701723461 H 0.0 **** 0.06
28053 H 113.8372849918941 37.13225307947553 16.310410019145237 H 0.0 **** 0.06
28054 H 112.17801903974213 37.03031002216659 15.673148821266153 H 0.0 **** 0.06
28055 H 112.85054214997051 38.605958893318814 16.155967623068932 H 0.0 **** 0.06
28056 C 61.955418324510916 120.61088751103989 45.914375764103056 C 0.0 **** -0.24
28057 H 61.45016457161687 120.09965201083929 46.73444287293569 H 0.0 **** 0.06
28058 H 63.02642868521433 120.64754828905421 46.1133906625019 H 0.0 **** 0.06
28059 H 61.56660781412975 121.62529624829216 45.82589166268377 H 0.0 **** 0.06
28060 H 61.77528310684046 120.07015841989835 44.985518142228386 H 0.0 **** 0.06
28061 C 89.79157007987101 124.05378035148756 73.75910035172228 C 0.0 **** -0.24
28062 H 90.83400027638146 123.77559829690442 73.91497905670855 H 0.0 **** 0.06
28063 H 89.14649766892535 123.22618892975184 74.05585138652452 H 0.0 **** 0.06
28064 H 89.63050888516614 124.28161739952016 72.70581041364346 H 0.0 **** 0.06
28065 H 89.55645611349041 124.93156823260709 74.3610172854369 H 0.0 **** 0.06
28066 C 183.75983975733203 43.233061928576845 60.71976908693935 C 0.0 **** -0.24
28067 H 184.1082458765879 44.19602387463733 60.34698014455154 H 0.0 **** 0.06
28068 H 184.55903475376877 42.75209915197702 61.28359822694745 H 0.0 **** 0.06
28069 H 183.47563431836585 42.60001143039335 59.87905006384125 H 0.0 **** 0.06
28070 H 182.8975009386536 43.38538570510403 61.36764124992948 H 0.0 **** 0.06
28071 C 69.23074083635254 204.59702995447992 191.0171378358811 C 0.0 **** -0.24
28072 H 70.25497222574563 204.32113111750098 190.76588889025408 H 0.0 **** 0.06
28073 H 69.02963035239958 204.33752718414115 192.05680606765986 H 0.0 **** 0.06
28074 H 68.54066547317342 204.05901656680703 190.3670380530069 H 0.0 **** 0.06
28075 H 69.09913061255668 205.6699343872653 190.87799417364707 H 0.0 **** 0.06
28076 C 5.272921123733795 154.55255253531527 112.55054164400708 C 0.0 **** -0.24
28077 H 5.712112030354092 153.55987066328782 112.44520785473888 H 0.0 **** 0.06
28078 H 4.647840502887163 154.57906346247353 113.44356042239288 H 0.0 **** 0.06
28079 H 4.665660464201721 154.77527768047736 111.6738061538497 H 0.0 **** 0.06
28080 H 6.068329651428002 155.29340016468495 112.6399800304499 H 0.0 **** 0.06
28081 C 156.80322332061615 157.47482435780802 136.93420713407062 C 0.0 **** -0.24
28082 H 156.7059606962302 157.15967116243917 137.97338930857836 H 0.0 **** 0.06
28083 H 155.88003359721262 157.2514799115291 136.39965767309042 H 0.0 **** 0.06
28084 H 157.63131652275308 156.9398255344924 136.46858061463485 H 0.0 **** 0.06
28085 H 156.99526687326153 158.5470578838565 136.8957535883742 H 0.0 **** 0.06
28086 C 57.95511433301306 81.84873184068181 129.33171246851543 C 0.0 **** -0.24
28087 H 58.26050231459868 82.8634309838834 129.07842814614634 H 0.0 **** 0.06
28088 H 57.465023414169934 81.84872179811038 130.30527706646518 H 0.0 **** 0.06
28089 H 58.833495300581745 81.20280981879802 129.36659492869688 H 0.0 **** 0.06
28090 H 57.262406025003486 81.47863342754675 128.57601378662764 H 0.0 **** 0.06
28091 C 168.74683138890578 112.64210779475961 177.80834926613255 C 0.0 **** -0.24
28092 H 169.74728610306394 113.04231090907949 177.97302461448098 H 0.0 **** 0.06
28093 H 168.6607404528251 111.66976856387838 178.29256605046766 H 0.0 **** 0.06
28094 H 168.5717674094899 112.53303139509497 176.73836278622952 H 0.0 **** 0.06
28095 H 168.00922382283542 113.32581501378404 178.22848811542278 H 0.0 **** 0.06
28096 C 58.87841756671537 34.79043109881037 113.55130419611386 C 0.0 **** -0.24
28097 H 59.46468492669993 34.65111588592653 112.64234874542298 H 0.0 **** 0.06
28098 H 59.21197856622166 34.08197282130317 114.30992734048526 H 0.0 **** 0.06
28099 H 57.82482303698913 34.62084384130401 113.33302034879658 H 0.0 **** 0.06
28100 H 59.01455753114459 35.80736428292772 113.91844304614865 H 0.0 **** 0.06
28101 C 60.26232957880313 116.52676271184082 209.07918352056737 C 0.0 **** -0.24
28102 H 60.62350162976679 116.64302565143142 208.05770282912826 H 0.0 **** 0.06
28103 H 59.28896463227295 116.03746184468584 209.0672478515953 H 0.0 **** 0.06
28104 H 60.16994306346362 117.50835236222618 209.5450844154986 H 0.0 **** 0.06
28105 H 60.967434672826926 115.92014063452253 209.6467128889324 H 0.0 **** 0.06
28106 C 185.23595678951034 154.57619543611906 120.60057335086948 C 0.0 **** -0.24
28107 H 184.94116292298742 155.10338680793268 121.50794481357532 H 0.0 **** 0.06
28108 H 184.3575706723434 154.40777055568708 119.9775348082875 H 0.0 **** 0.06
28109 H 185.68235394915837 153.6174068939465 120.86661707780233 H 0.0 **** 0.06
28110 H 185.96177877256537 155.17523578443854 120.05125173732036 H 0.0 **** 0.06
28111 C 153.72425136458332 71.9221636034244 49.17080745022082 C 0.0 **** -0.24
28112 H 153.30218330087894 72.12795152865357 50.15467228976547 H 0.0 **** 0.06
28113 H 153.11887553427647 71.1688680717794 48.66720435910321 H 0.0 **** 0.06
28114 H 154.74403123091616 71.55523021798604 49.28226611111114 H 0.0 **** 0.06
28115 H 153.73006205310696 72.838469456361 48.58012990365154 H 0.0 **** 0.06
28116 C 162.9327948916439 59.23543955514299 151.2537860810561 C 0.0 **** -0.24
28117 H 163.64412089012052 59.75963817251818 150.61588070943787 H 0.0 **** 0.06
28118 H 162.9018449372724 58.18168254762591 150.97552106744507 H 0.0 **** 0.06
28119 H 161.9430752097864 59.67373289329845 151.13083074343274 H 0.0 **** 0.06
28120 H 163.24320298743982 59.32669718534777 152.2951179262272 H 0.0 **** 0.06
28121 C 206.71275248477374 110.60282259718032 150.14790364912778 C 0.0 **** -0.24
28122 H 207.6729305220836 110.64929308255857 149.63455312627656 H 0.0 **** 0.06
28123 H 206.50843472119453 111.5632925381296 150.6217684952985 H 0.0 **** 0.06
28124 H 206.74515576237215 109.82210145983127 150.90808038893823 H 0.0 **** 0.06
28125 H 205.92624620895637 110.37773660557606 149.42848840790174 H 0.0 **** 0.06
28126 C 70.65937598717625 50.37072112550871 169.599974490661 C 0.0 **** -0.24
28127 H 70.32652576465443 51.12751888199908 170.31004914562612 H 0.0 **** 0.06
28128 H 70.98374646103025 50.85509366231575 168.67767290326162 H 0.0 **** 0.06
28129 H 69.83574347166024 49.69044260046245 169.38234004627458 H 0.0 **** 0.06
28130 H 71.48999571746361 49.81075775978037 170.02812984490959 H 0.0 **** 0.06
28131 C 96.80741628937851 155.2395899117866 75.09103644314654 C 0.0 **** -0.24
28132 H 97.34081789205679 155.95301201472637 75.71874478294332 H 0.0 **** 0.06
28133 H 96.92666237355708 155.5164578467893 74.0433787410645 H 0.0 **** 0.06
28134 H 95.74884584707378 155.2456084951824 75.35141796541707 H 0.0 **** 0.06
28135 H 97.21466798805527 154.24025041967212 75.25082318649784 H 0.0 **** 0.06
28136 C 167.7215794915142 168.00459739851766 23.628399104905384 C 0.0 **** -0.24
28137 H 166.80899283720436 167.46610683943203 23.372454470149705 H 0.0 **** 0.06
28138 H 167.8303209166185 168.86643374935562 22.969139245460923 H 0.0 **** 0.06
28139 H 168.57894612997933 167.34354755931167 23.50728481679542 H 0.0 **** 0.06
28140 H 167.66565939524935 168.34271008777085 24.663275858047285 H 0.0 **** 0.06
28141 C 19.94869472079563 68.58172455927667 88.82361268393805 C 0.0 **** -0.24
28142 H 20.03577804977965 67.54430922547311 88.49884341849634 H 0.0 **** 0.06
28143 H 20.0726859875532 69.24221019676492 87.96492412593017 H 0.0 **** 0.06
28144 H 20.719987965271855 68.7971096374689 89.56243480021588 H 0.0 **** 0.06
28145 H 18.966107828304928 68.74202909447251 89.26669459632565 H 0.0 **** 0.06
28146 C 118.34651216873378 7.882261018520907 31.62192007261399 C 0.0 **** -0.24
28147 H 117.76112151204093 6.982789141274722 31.42962532998439 H 0.0 **** 0.06
28148 H 117.95678334345011 8.386183081014039 32.505753832689834 H 0.0 **** 0.06
28149 H 118.2793664607449 8.549015928280554 30.76284239066183 H 0.0 **** 0.06
28150 H 119.38837303232249 7.60828593826534 31.789053968677422 H 0.0 **** 0.06
28151 C 153.09155312473712 190.8959672084624 8.00269622166438 C 0.0 **** -0.24
28152 H 152.9090804317052 191.34294951354283 7.025707141204407 H 0.0 **** 0.06
28153 H 152.1629779624663 190.87852534056898 8.572792772108201 H 0.0 **** 0.06
28154 H 153.8366613446878 191.4851403403086 8.538297674423731 H 0.0 **** 0.06
28155 H 153.45804699622045 189.8777195216952 7.873297521439767 H 0.0 **** 0.06
28156 C 146.99332037512102 48.629912551541224 120.85523931100325 C 0.0 **** -0.24
28157 H 146.18591463814107 49.3437244304384 120.69172259862187 H 0.0 **** 0.06
28158 H 147.22262721965325 48.57939271486788 121.92050889418014 H 0.0 **** 0.06
28159 H 147.87908579691748 48.950380928233 120.3071838703771 H 0.0 **** 0.06
28160 H 146.68390877569766 47.64519618688284 120.50297051649925 H 0.0 **** 0.06
28161 C 163.86100860035458 44.682777683980305 201.53782386586212 C 0.0 **** -0.24
28162 H 164.84701929080813 44.356263317059415 201.86849050206268 H 0.0 **** 0.06
28163 H 163.67058294505836 44.30103187097865 200.53444639360444 H 0.0 **** 0.06
28164 H 163.82370619329117 45.771574184283566 201.52665116563315 H 0.0 **** 0.06
28165 H 163.1037515688249 44.30086245433063 202.2219237624073 H 0.0 **** 0.06
28166 C 25.671098623787998 195.91962495149005 12.180790716996 C 0.0 **** -0.24
28167 H 26.459472144316464 195.2957858460855 11.759230395382431 H 0.0 **** 0.06
28168 H 25.954964572013523 196.96920243998946 12.096094925180964 H 0.0 **** 0.06
28169 H 25.528718789858203 195.66491034498915 13.23098716915905 H 0.0 **** 0.06
28170 H 24.74320742864961 195.748518913647 11.63579275685764 H 0.0 **** 0.06
28171 C 5.44517310685324 181.5475064925858 108.72475378054939 C 0.0 **** -0.24
28172 H 5.213549211275492 181.75966367987013 107.68190537201589 H 0.0 **** 0.06
28173 H 5.371218142576247 182.46594857452087 109.30719943854625 H 0.0 **** 0.06
28174 H 6.457084536712912 181.1492993208428 108.79906691779694 H 0.0 **** 0.06
28175 H 4.7376525385557 180.81329637133786 109.11197633307582 H 0.0 **** 0.06
28176 C 109.25745556270316 198.25614747200535 123.02893424351002 C 0.0 **** -0.24
28177 H 109.88264734399796 198.96074032170685 122.47973272896799 H 0.0 **** 0.06
28178 H 109.8453610005122 197.37628572849763 123.29076176163171 H 0.0 **** 0.06
28179 H 108.41381854261176 197.95834225249723 122.4070502108306 H 0.0 **** 0.06
28180 H 108.88888558957565 198.73065798927195 123.93857213101283 H 0.0 **** 0.06
28181 C 114.60685569108993 105.65286364325463 79.30069006646563 C 0.0 **** -0.24
28182 H 114.99507227481011 106.55043109212001 79.78214483705882 H 0.0 **** 0.06
28183 H 115.07978751232166 105.53038948902189 78.3261169718836 H 0.0 **** 0.06
28184 H 113.52862944393634 105.7468577245552 79.17210388308747 H 0.0 **** 0.06
28185 H 114.82429874981513 104.78466620123014 79.9221213496056 H 0.0 **** 0.06
28186 C 20.14605792375933 213.95132955432177 53.6346622443493 C 0.0 **** -0.24
28187 H 19.49032711760104 214.81756317499554 53.554558947419665 H 0.0 **** 0.06
28188 H 20.752605768753767 214.03605500232223 54.53563195816042 H 0.0 **** 0.06
28189 H 20.796304218854743 213.90709011812083 52.760621756044344 H 0.0 **** 0.06
28190 H 19.543869569524162 213.04405551561177 53.68573225666377 H 0.0 **** 0.06
28191 C 26.008733739113325 151.40437780049228 79.24695971768342 C 0.0 **** -0.24
28192 H 26.617739116266137 151.23311824640263 78.35892831930529 H 0.0 **** 0.06
28193 H 25.53951488432051 152.38716526183902 79.18211648324707 H 0.0 **** 0.06
28194 H 26.639380436831175 151.36036203403893 80.13467390852195 H 0.0 **** 0.06
28195 H 25.236620696808416 150.63728216638407 79.31205109226839 H 0.0 **** 0.06
28196 C 151.5318922833137 101.80140910957618 67.01826390949736 C 0.0 **** -0.24
28197 H 151.3885525805486 101.08826354662762 66.20665053611376 H 0.0 **** 0.06
28198 H 152.45470659314293 101.56716419602395 67.5491256707578 H 0.0 **** 0.06
28199 H 150.6901478821223 101.73865553259799 67.70798087292013 H 0.0 **** 0.06
28200 H 151.59173363619414 102.80983957324395 66.60970652340427 H 0.0 **** 0.06
28201 C 37.258178652831546 189.720234335012 14.315000245731284 C 0.0 **** -0.24
28202 H 37.070751927610814 189.34325299745166 13.30865911964537 H 0.0 **** 0.06
28203 H 37.76577372274902 188.95378237167097 14.900956537080276 H 0.0 **** 0.06
28204 H 36.310936197253426 189.97406641236765 14.789318829974547 H 0.0 **** 0.06
28205 H 37.88616750656044 190.60923063724584 14.256847771564821 H 0.0 **** 0.06
28206 C 95.79755341999719 77.6313640096444 39.61738368742249 C 0.0 **** -0.24
28207 H 95.97020065300616 77.98100476391475 38.59960698816906 H 0.0 **** 0.06
28208 H 94.78716006078459 77.90052335599397 39.92666779269399 H 0.0 **** 0.06
28209 H 96.51869297628427 78.09703821029358 40.288693158921774 H 0.0 **** 0.06
28210 H 95.9124701289672 76.54840836249436 39.65365129838608 H 0.0 **** 0.06
28211 C 50.124893747635156 82.07401875273787 111.19290232907387 C 0.0 **** -0.24
28212 H 49.598444866587826 81.97378717127744 112.14290357613119 H 0.0 **** 0.06
28213 H 50.06349069294761 81.13451154021227 110.64365193130668 H 0.0 **** 0.06
28214 H 51.17032098634175 82.31733376446051 111.38187276508314 H 0.0 **** 0.06
28215 H 49.666387647449014 82.86952087830385 110.60668595500913 H 0.0 **** 0.06
28216 C 38.60137584567266 198.3901974193591 40.76024418787122 C 0.0 **** -0.24
28217 H 38.17174495081839 198.1185711958796 41.724307785429346 H 0.0 **** 0.06
28218 H 38.21474640282459 199.36228670738555 40.45189657448307 H 0.0 **** 0.06
28219 H 38.332226342345606 197.6393868595988 40.01737462774764 H 0.0 **** 0.06
28220 H 39.686979145422754 198.44174909256606 40.84811369886438 H 0.0 **** 0.06
28221 C 120.57415118627749 27.41710989121789 170.84775363754102 C 0.0 **** -0.24
28222 H 121.30520921087829 27.74758039718347 171.58582514570355 H 0.0 **** 0.06
28223 H 120.17964272619814 28.282515155361764 170.31448545497022 H 0.0 **** 0.06
28224 H 119.75909464526647 26.898378654716367 171.35246531405875 H 0.0 **** 0.06
28225 H 121.05278267561938 26.74125654932989 170.14006000997728 H 0.0 **** 0.06
28226 C 99.56318686208151 62.001859795671635 159.1361586431506 C 0.0 **** -0.24
28227 H 100.14249284877313 61.74010188911575 160.02206638274984 H 0.0 **** 0.06
28228 H 99.8062558967574 61.312400556250665 158.32673071938416 H 0.0 **** 0.06
28229 H 99.80630965521003 63.019807662523675 158.83152840024167 H 0.0 **** 0.06
28230 H 98.49986009310881 61.93460025541333 159.3642254272987 H 0.0 **** 0.06
28231 C 86.67620267960478 176.67603018936978 73.48796797020698 C 0.0 **** -0.24
28232 H 86.19083801695393 176.5767669825342 74.45838287132808 H 0.0 **** 0.06
28233 H 86.15495837653737 176.05899980360067 72.7564708709791 H 0.0 **** 0.06
28234 H 87.71361900980713 176.34985860581602 73.5655282797555 H 0.0 **** 0.06
28235 H 86.64638489988897 177.7185249935378 73.17134892929288 H 0.0 **** 0.06
28236 C 182.7097458877294 123.52777181459253 95.48154325383014 C 0.0 **** -0.24
28237 H 182.47123474601617 123.26265275157435 94.45137848076563 H 0.0 **** 0.06
28238 H 182.9571722362156 122.62564094996362 96.04041195917482 H 0.0 **** 0.06
28239 H 181.84852735709148 124.01387070258998 95.93947954124387 H 0.0 **** 0.06
28240 H 183.56086892149668 124.20822312654853 95.493447917565 H 0.0 **** 0.06
28241 C 181.54921038136175 69.0793662945671 93.6768987605807 C 0.0 **** -0.24
28242 H 181.73018872459215 70.14578712368991 93.54496097414766 H 0.0 **** 0.06
28243 H 182.30952926185378 68.51218557194154 93.13843762743282 H 0.0 **** 0.06
28244 H 180.56355974349856 68.82680642087745 93.28542018579894 H 0.0 **** 0.06
28245 H 181.59322804715498 68.8322742520887 94.73746563686755 H 0.0 **** 0.06
28246 C 144.9073322738842 147.3726671484115 210.12878501966077 C 0.0 **** -0.24
28247 H 144.66588324800028 148.28617955977592 209.58460527643263 H 0.0 **** 0.06
28248 H 144.71456994841583 147.5216447290913 211.19144466008186 H 0.0 **** 0.06
28249 H 145.95879994885047 147.12944187763412 209.9802376841183 H 0.0 **** 0.06
28250 H 144.2883745777408 146.55506724125598 209.75827468021143 H 0.0 **** 0.06
28251 C 14.772130410440468 115.36554223799097 0.6014789818314625 C 0.0 **** -0.24
28252 H 14.693785233057156 116.12677004294964 -0.17481245894995823 H 0.0 **** 0.06
28253 H 14.686279709788664 115.83544500638102 1.5807410334236067 H 0.0 **** 0.06
28254 H 15.73608409919774 114.86334590373856 0.5207680073688437 H 0.0 **** 0.06
28255 H 13.971195733719867 114.63650268484928 0.47566911553917635 H 0.0 **** 0.06
28256 C 156.41650783354606 114.562652205443 136.69549803122868 C 0.0 **** -0.24
28257 H 156.2401264247947 114.59762112491812 135.6206511109856 H 0.0 **** 0.06
28258 H 157.47609380781876 114.38947195657859 136.8832619759272 H 0.0 **** 0.06
28259 H 155.83178246940025 113.75324932426959 137.13244809560103 H 0.0 **** 0.06
28260 H 156.11721479014437 115.51102096994462 137.1434472731944 H 0.0 **** 0.06
28261 C 142.50747181374044 45.63214839316478 45.876852639043506 C 0.0 **** -0.24
28262 H 142.34336153079704 44.55727383678831 45.950681045313175 H 0.0 **** 0.06
28263 H 142.15037712387232 46.117285567301934 46.785310366483685 H 0.0 **** 0.06
28264 H 141.9625093344548 46.024110216839176 45.01825555274054 H 0.0 **** 0.06
28265 H 143.57158278761665 45.82965214172464 45.75232866565614 H 0.0 **** 0.06
28266 C 114.95740441346715 211.346591726875 73.22610475924346 C 0.0 **** -0.24
28267 H 114.8415856856206 210.98071920218834 72.20617807321698 H 0.0 **** 0.06
28268 H 114.8870373041259 210.51002076057 73.92222231153481 H 0.0 **** 0.06
28269 H 114.1709873039045 212.0683315261551 73.44446434935735 H 0.0 **** 0.06
28270 H 115.93031801278426 211.8263787343328 73.3318057027662 H 0.0 **** 0.06
28271 C 73.9403142473613 17.76805475178395 2.978585028662991 C 0.0 **** -0.24
28272 H 73.61792041701221 18.095255814186345 1.9893692564248795 H 0.0 **** 0.06
28273 H 73.9209669048127 18.614843286638347 3.6655355472416886 H 0.0 **** 0.06
28274 H 74.95296352556011 17.37154365147373 2.9174254436316573 H 0.0 **** 0.06
28275 H 73.26637981826786 16.991057364851542 3.339862744920879 H 0.0 **** 0.06
28276 C 18.96725784041891 137.76543900646118 36.1490404586919 C 0.0 **** -0.24
28277 H 19.357452412162502 137.21506506933525 37.00511163610463 H 0.0 **** 0.06
28278 H 17.97786187792093 138.15505335559317 36.389603201023846 H 0.0 **** 0.06
28279 H 18.89572159774508 137.0984375827851 35.28951395230473 H 0.0 **** 0.06
28280 H 19.636102822007558 138.59243667701355 35.91284697317434 H 0.0 **** 0.06
28281 C 47.1234283420486 109.00416061760006 88.2059110139483 C 0.0 **** -0.24
28282 H 47.34676935774024 109.6907972129199 89.02296433369871 H 0.0 **** 0.06
28283 H 47.8214258082574 108.16809965683609 88.23301680473499 H 0.0 **** 0.06
28284 H 47.21967448763917 109.5288956719317 87.25490367721882 H 0.0 **** 0.06
28285 H 46.1041595435624 108.63139514129517 88.31358726819396 H 0.0 **** 0.06
28286 C 100.45469862649516 94.00365522060599 184.79898194199404 C 0.0 **** -0.24
28287 H 100.01116326002163 94.43677584237594 185.6957227342101 H 0.0 **** 0.06
28288 H 99.77591004700433 94.13942515136034 183.95639263244203 H 0.0 **** 0.06
28289 H 100.62926959753874 92.93932373841716 184.95733159613246 H 0.0 **** 0.06
28290 H 101.40245160141596 94.49909615027065 184.58648080519168 H 0.0 **** 0.06
28291 C 134.96463070327974 207.66577221207245 37.00249164161552 C 0.0 **** -0.24
28292 H 135.18584017138903 208.41504389506082 37.76267876005866 H 0.0 **** 0.06
28293 H 134.55499238381628 206.77459116108975 37.47900180377444 H 0.0 **** 0.06
28294 H 135.88042861510604 207.40509815247668 36.47227720360556 H 0.0 **** 0.06
28295 H 134.23778782880197 208.06824891171186 36.29731714582053 H 0.0 **** 0.06
28296 C 167.0915965478025 144.93346930203984 84.23670262222691 C 0.0 **** -0.24
28297 H 167.43311313772435 145.21526558994458 83.24045997354955 H 0.0 **** 0.06
28298 H 167.23065549596652 145.77256375438998 84.91836620881992 H 0.0 **** 0.06
28299 H 167.66910122222163 144.0789993739125 84.59072048071761 H 0.0 **** 0.06
28300 H 166.03566181964928 144.6672671269945 84.19667291172624 H 0.0 **** 0.06
28301 C 10.630293176964045 181.31919361756906 154.64170098414843 C 0.0 **** -0.24
28302 H 10.117239817468032 181.20300100380507 155.59678301051997 H 0.0 **** 0.06
28303 H 10.624664703183356 182.36984082125957 154.35137201268543 H 0.0 **** 0.06
28304 H 10.119502356586565 180.72890801323726 153.88105272320507 H 0.0 **** 0.06
28305 H 11.65966291853303 180.97374753355373 154.73819490766613 H 0.0 **** 0.06
28306 C 197.07079487013047 56.24333081685529 77.17815441812685 C 0.0 **** -0.24
28307 H 196.5758322515717 56.84097736932068 76.4128696759551 H 0.0 **** 0.06
28308 H 197.39225941125514 55.29548612754547 76.74603506338697 H 0.0 **** 0.06
28309 H 196.37534349969224 56.05327845026926 77.99583567056753 H 0.0 **** 0.06
28310 H 197.93830278924065 56.7842961870395 77.55632450856153 H 0.0 **** 0.06
28311 C 111.96043576442003 24.605806988067727 181.4164105301043 C 0.0 **** -0.24
28312 H 112.93569731984849 24.153255257824156 181.5936306017146 H 0.0 **** 0.06
28313 H 111.82218840330285 25.44759806699396 182.0948982475295 H 0.0 **** 0.06
28314 H 111.17931698289885 23.865672591677438 181.59046702508698 H 0.0 **** 0.06
28315 H 111.90566926324374 24.95717314496595 180.3859365640466 H 0.0 **** 0.06
28316 C 81.42994862079964 165.83326401585512 106.34197291611912 C 0.0 **** -0.24
28317 H 81.67798452205692 166.65100958601064 107.01927308994215 H 0.0 **** 0.06
28318 H 81.0508629401407 164.98782783804705 106.91742654437388 H 0.0 **** 0.06
28319 H 82.32351068717348 165.5302370693298 105.79720083338458 H 0.0 **** 0.06
28320 H 80.6676073639169 166.16373940106482 105.63744261768426 H 0.0 **** 0.06
28321 C 170.82399731796357 77.35804998359141 115.54254540187073 C 0.0 **** -0.24
28322 H 171.2797658694979 78.34537285554829 115.46245966727427 H 0.0 **** 0.06
28323 H 171.04883663203705 76.93385417113565 116.52109858463693 H 0.0 **** 0.06
28324 H 171.22570425739707 76.70855643170707 114.76347105848244 H 0.0 **** 0.06
28325 H 169.74439771136855 77.44425482191205 115.42237660323651 H 0.0 **** 0.06
28326 C 22.318214443178306 201.50209505640174 202.52319405892814 C 0.0 **** -0.24
28327 H 23.37545642378774 201.24220791802435 202.46335912249387 H 0.0 **** 0.06
28328 H 22.20909877105254 202.58691932482128 202.49094127596013 H 0.0 **** 0.06
28329 H 21.902816439739837 201.12238919593796 203.45623054328678 H 0.0 **** 0.06
28330 H 21.786685675270604 201.0588499137555 201.6814601110898 H 0.0 **** 0.06
28331 C 55.802140237608626 196.04433714751204 112.59948234174969 C 0.0 **** -0.24
28332 H 54.758495287170774 195.73634263717292 112.53484691878548 H 0.0 **** 0.06
28333 H 56.389094849753064 195.49221928241857 111.86536090352125 H 0.0 **** 0.06
28334 H 56.18060842714263 195.83630370752468 113.59968383843038 H 0.0 **** 0.06
28335 H 55.87852685234455 197.11264051748788 112.39677039566236 H 0.0 **** 0.06
28336 C 128.7056816822888 10.17164411513599 54.99642655456768 C 0.0 **** -0.24
28337 H 127.92232201082017 9.567290968282549 54.540073599526266 H 0.0 **** 0.06
28338 H 128.4951413852575 11.22734352011102 54.82766733894235 H 0.0 **** 0.06
28339 H 129.66736928484636 9.916280331971265 54.54940702465363 H 0.0 **** 0.06
28340 H 128.7401335507608 9.973366185537046 56.067712262924104 H 0.0 **** 0.06
28341 C 98.4771454610713 145.32847310465962 161.774792071613 C 0.0 **** -0.24
28342 H 98.45432053471524 144.3370843840206 161.3241719037776 H 0.0 **** 0.06
28343 H 99.16252889821453 145.9660567773181 161.21644295173948 H 0.0 **** 0.06
28344 H 98.8144127192229 145.2497968750963 162.80816421124436 H 0.0 **** 0.06
28345 H 97.47679662316625 145.76153655659675 161.7515671440218 H 0.0 **** 0.06
28346 C 206.99989533283417 63.185336183376364 34.60515556575547 C 0.0 **** -0.24
28347 H 207.83706340332174 62.798127414176406 35.184500971357 H 0.0 **** 0.06
28348 H 206.64670351288748 64.11362238291736 35.05326090204872 H 0.0 **** 0.06
28349 H 206.19144703537825 62.453593900033866 34.59943419031403 H 0.0 **** 0.06
28350 H 207.32382212704874 63.37640417965275 33.5812954107774 H 0.0 **** 0.06
28351 C 20.61064255586956 69.8729967312638 128.85526249004636 C 0.0 **** -0.24
28352 H 20.655740318447045 68.78546817884302 128.8002809422996 H 0.0 **** 0.06
28353 H 21.304772599875633 70.2278598867038 129.6168383257138 H 0.0 **** 0.06
28354 H 19.59736800504288 70.18154385541833 129.11477648454752 H 0.0 **** 0.06
28355 H 20.88299212787237 70.2973959728992 127.88895243111033 H 0.0 **** 0.06
28356 C 20.194016075795304 192.27353485607273 82.44015338308253 C 0.0 **** -0.24
28357 H 19.722756464489905 192.11957063123572 81.46964757393465 H 0.0 **** 0.06
28358 H 20.861783415732717 193.13374296801135 82.3873620017153 H 0.0 **** 0.06
28359 H 20.76545435706454 191.38582251243196 82.71040921375987 H 0.0 **** 0.06
28360 H 19.426671315407503 192.45402659550044 83.19236736356089 H 0.0 **** 0.06
28361 C 139.98699367339725 159.4109188468937 23.93217135388656 C 0.0 **** -0.24
28362 H 140.35104185630541 158.6604680909888 24.633462812712963 H 0.0 **** 0.06
28363 H 139.23560176766694 158.96457161560988 23.281191722019912 H 0.0 **** 0.06
28364 H 140.81746513093606 159.77970742729156 23.330422010265394 H 0.0 **** 0.06
28365 H 139.54318155007354 160.23912508332944 24.4848307151466 H 0.0 **** 0.06
28366 C 103.47656742454488 204.93569400323804 39.72523649803911 C 0.0 **** -0.24
28367 H 103.5421549371138 203.87655742204268 39.47704884749024 H 0.0 **** 0.06
28368 H 103.48833172785955 205.5244904100603 38.807984880276365 H 0.0 **** 0.06
28369 H 104.32573741945693 205.21546439749724 40.347429358401484 H 0.0 **** 0.06
28370 H 102.54993959254368 205.12454793828215 40.26746079885321 H 0.0 **** 0.06
28371 C 115.61022620607496 21.030773735127184 141.09948394516937 C 0.0 **** -0.24
28372 H 115.22965569603942 20.440713453060482 141.9323885398888 H 0.0 **** 0.06
28373 H 114.77586398235046 21.488126722930602 140.56737675008446 H 0.0 **** 0.06
28374 H 116.16362537126692 20.383141858496217 140.4197336624759 H 0.0 **** 0.06
28375 H 116.27132425502079 21.810214776625017 141.4783759743467 H 0.0 **** 0.06
28376 C 189.00319601409296 212.6406001497184 65.9685327323933 C 0.0 **** -0.24
28377 H 188.41313003475253 211.7246428602032 65.92820244614046 H 0.0 **** 0.06
28378 H 188.34135468399575 213.4933592512632 66.12273104799772 H 0.0 **** 0.06
28379 H 189.54432961503164 212.76498234616986 65.03123202812594 H 0.0 **** 0.06
28380 H 189.71369579300568 212.57789368065534 66.79358007789534 H 0.0 **** 0.06
28381 C 203.51486883551524 21.12075162987783 111.68840645468482 C 0.0 **** -0.24
28382 H 203.96794828248858 20.21131216260234 111.29270831099923 H 0.0 **** 0.06
28383 H 204.1623489434161 21.971191417378364 111.47565117677358 H 0.0 **** 0.06
28384 H 203.38464001805326 21.02184772148499 112.7665106355178 H 0.0 **** 0.06
28385 H 202.5439769018544 21.27564698382581 111.21795835290165 H 0.0 **** 0.06
28386 C 81.42783115614782 51.280235438837906 158.01081437948807 C 0.0 **** -0.24
28387 H 81.36520249191221 50.727474434758676 158.9489924465908 H 0.0 **** 0.06
28388 H 82.37289458894088 51.820121883718684 157.9698163210531 H 0.0 **** 0.06
28389 H 80.60111500873927 51.98894457827879 157.95124992834468 H 0.0 **** 0.06
28390 H 81.36961695937339 50.583302178067015 157.1750869929918 H 0.0 **** 0.06
28391 C 61.99458651064788 176.04246020428235 62.75154795008797 C 0.0 **** -0.24
28392 H 61.825704491836575 174.97191668557986 62.868870493223596 H 0.0 **** 0.06
28393 H 62.22112396171559 176.482781231308 63.7231874578934 H 0.0 **** 0.06
28394 H 61.098057730124935 176.50848915912923 62.341447580665886 H 0.0 **** 0.06
28395 H 62.832280406340885 176.2060000223305 62.0731123874246 H 0.0 **** 0.06
28396 C 106.62872707171711 118.45663089517267 31.744744466346674 C 0.0 **** -0.24
28397 H 106.29157602992176 118.85810831927155 30.78812948568833 H 0.0 **** 0.06
28398 H 106.85000469540365 117.39459389863443 31.63549347047912 H 0.0 **** 0.06
28399 H 105.84447507892479 118.59051150738883 32.490212735443734 H 0.0 **** 0.06
28400 H 107.52738275480549 118.98493823774119 32.06309560991538 H 0.0 **** 0.06
28401 C 142.57638230990403 132.96598450391934 87.78094430444669 C 0.0 **** -0.24
28402 H 142.47445145333114 133.4003120028783 88.77472840371117 H 0.0 **** 0.06
28403 H 143.50428768615262 132.39580549736115 87.72734705797053 H 0.0 **** 0.06
28404 H 142.59580941598665 133.76236634275716 87.03734314689258 H 0.0 **** 0.06
28405 H 141.73189309851233 132.30640071288389 87.58487975752674 H 0.0 **** 0.06
28406 C 71.04150513074785 51.04861884898955 76.80465859026172 C 0.0 **** -0.24
28407 H 71.10120314828123 51.86678330232402 76.08692799280753 H 0.0 **** 0.06
28408 H 71.94922917085785 51.02769748806594 77.40840730791179 H 0.0 **** 0.06
28409 H 70.93752777789626 50.10349035860787 76.2707868825462 H 0.0 **** 0.06
28410 H 70.17672184502408 51.196097150971184 77.45230600348067 H 0.0 **** 0.06
28411 C 73.01427135214135 40.24421111527013 164.64482191391883 C 0.0 **** -0.24
28412 H 73.2132209044907 40.60480780084794 163.63602548811718 H 0.0 **** 0.06
28413 H 73.85852548855428 40.48600716944401 165.2895937639958 H 0.0 **** 0.06
28414 H 72.87148275037583 39.16399717571423 164.6228585262968 H 0.0 **** 0.06
28415 H 72.11357424840821 40.72232148484511 165.0298950743616 H 0.0 **** 0.06
28416 C 200.50457597472132 139.10293403485502 150.73360822098067 C 0.0 **** -0.24
28417 H 200.65912079867104 138.5442515503142 151.65665801070458 H 0.0 **** 0.06
28418 H 200.14156360549333 140.1025502929778 150.97135279672398 H 0.0 **** 0.06
28419 H 199.771361544083 138.58578260782537 150.11549243880984 H 0.0 **** 0.06
28420 H 201.44819017327637 139.1776944713244 150.1923935946317 H 0.0 **** 0.06
28421 C 190.7206334668677 67.09010228768221 166.47680598149978 C 0.0 **** -0.24
28422 H 191.3153759193271 66.53984850046874 167.20561618594056 H 0.0 **** 0.06
28423 H 190.57790196521225 68.11388811186987 166.82280662222752 H 0.0 **** 0.06
28424 H 189.75070528194146 66.60699748979374 166.3600917946099 H 0.0 **** 0.06
28425 H 191.23942041767626 67.09930274000357 165.5176581271906 H 0.0 **** 0.06
28426 C 171.9944954644022 58.32489708319869 27.694035467891965 C 0.0 **** -0.24
28427 H 171.66277920850277 57.522164500065855 27.034975627201874 H 0.0 **** 0.06
28428 H 172.17219056904085 57.92464443639355 28.692400337107088 H 0.0 **** 0.06
28429 H 171.22601229711577 59.09582900761046 27.74203245726349 H 0.0 **** 0.06
28430 H 172.91701726609836 58.755916015516874 27.30475106477786 H 0.0 **** 0.06
28431 C 205.68954116502462 48.21785093769857 203.73117034807515 C 0.0 **** -0.24
28432 H 205.68679529964837 49.1995846024881 203.259135833168 H 0.0 **** 0.06
28433 H 204.81044635202989 47.65846234661069 203.41164281276906 H 0.0 **** 0.06
28434 H 205.67076689138764 48.33573876235097 204.81494852480552 H 0.0 **** 0.06
28435 H 206.5907688360222 47.67794192150694 203.44054158623916 H 0.0 **** 0.06
28436 C 107.88368175947375 152.33722311514606 9.039073968739558 C 0.0 **** -0.24
28437 H 107.23155067491854 152.4079620745635 9.908760210975771 H 0.0 **** 0.06
28438 H 108.84246700345125 152.80493602524922 9.264499430554537 H 0.0 **** 0.06
28439 H 107.4196967031624 152.84653812600789 8.19434725178101 H 0.0 **** 0.06
28440 H 108.04140043487308 151.28817961231528 8.788220050043037 H 0.0 **** 0.06
28441 C 63.21601593276034 41.393642979977315 122.24520328064011 C 0.0 **** -0.24
28442 H 63.89946821497523 41.83102259796374 121.51728694808014 H 0.0 **** 0.06
28443 H 63.40234958267388 41.830508609225205 123.22689027226693 H 0.0 **** 0.06
28444 H 63.375098396729584 40.316611980503225 122.28972427161 H 0.0 **** 0.06
28445 H 62.18762971488371 41.59670979270635 121.94527194770382 H 0.0 **** 0.06
28446 C 203.77875143145548 74.9215155799941 92.05657708698998 C 0.0 **** -0.24
28447 H 203.64233822444373 73.95888880308632 91.56391162251505 H 0.0 **** 0.06
28448 H 203.54330815008677 74.82358106286307 93.11638481965507 H 0.0 **** 0.06
28449 H 203.11522675428762 75.6587916528278 91.6037049792457 H 0.0 **** 0.06
28450 H 204.81413259700378 75.24480080119929 91.94230692654408 H 0.0 **** 0.06
28451 C 33.57016830412539 183.37017104156757 145.713219955633 C 0.0 **** -0.24
28452 H 34.011711311065596 182.81117301277595 144.88777272815662 H 0.0 **** 0.06
28453 H 33.99015358341315 183.018145910306 146.6561350264442 H 0.0 **** 0.06
28454 H 32.490282803271725 183.21953320025136 145.7175437690891 H 0.0 **** 0.06
28455 H 33.78823104293123 184.43059287286613 145.5908136644594 H 0.0 **** 0.06
28456 C 114.16315731547117 23.361374345563604 115.87321575806673 C 0.0 **** -0.24
28457 H 113.92894727499477 22.662273818192347 116.67541849407873 H 0.0 **** 0.06
28458 H 113.3079338375512 23.44353237511507 115.20118374531914 H 0.0 **** 0.06
28459 H 115.02901379960541 23.00129826560118 115.31792493738594 H 0.0 **** 0.06
28460 H 114.38605883216293 24.34024934563547 116.29802370153088 H 0.0 **** 0.06
28461 C 161.4308869509328 32.89071238781139 161.3686841945904 C 0.0 **** -0.24
28462 H 162.26391233215514 33.28398804488651 161.9508217195114 H 0.0 **** 0.06
28463 H 160.67338297579863 33.66520953086135 161.24903454958957 H 0.0 **** 0.06
28464 H 160.99823101772228 32.03536048285417 161.88714546665344 H 0.0 **** 0.06
28465 H 161.7888596366023 32.577856768047695 160.38806446896402 H 0.0 **** 0.06
28466 C 125.18010799930879 202.63552007781865 141.06928985733225 C 0.0 **** -0.24
28467 H 125.37621969711073 201.64009473902567 141.4682519361175 H 0.0 **** 0.06
28468 H 124.93348627317455 203.31203774977638 141.88789031476415 H 0.0 **** 0.06
28469 H 124.3441750272492 202.5879574561368 140.37148544506562 H 0.0 **** 0.06
28470 H 126.06717852392931 202.99957167090216 140.55119193767075 H 0.0 **** 0.06
28471 C 59.63473044564773 117.11236582960065 176.08459375175067 C 0.0 **** -0.24
28472 H 59.71386713362068 116.07868821048525 176.41998767897434 H 0.0 **** 0.06
28473 H 58.65117941361467 117.50541197596134 176.34524919411632 H 0.0 **** 0.06
28474 H 59.76771771995783 117.1543039294496 175.00317166434087 H 0.0 **** 0.06
28475 H 60.405390326659756 117.7117868992754 176.5685946351427 H 0.0 **** 0.06
28476 C 114.18865246329348 18.599025670404544 111.10557255893796 C 0.0 **** -0.24
28477 H 113.17053811897632 18.87814697110484 110.83198045624592 H 0.0 **** 0.06
28478 H 114.28265895412964 17.513254106884432 111.09408237888495 H 0.0 **** 0.06
28479 H 114.41201889195109 18.973511561500814 112.10394617231917 H 0.0 **** 0.06
28480 H 114.8872806287089 19.031258931707725 110.39015295636447 H 0.0 **** 0.06
28481 C 60.53642060134996 208.6990739251739 36.41618173133489 C 0.0 **** -0.24
28482 H 61.129653914211644 208.54044385583416 37.31711451771383 H 0.0 **** 0.06
28483 H 61.050604271341996 209.40426455244022 35.76216606513242 H 0.0 **** 0.06
28484 H 59.56143398898803 209.10219831785642 36.68993520710512 H 0.0 **** 0.06
28485 H 60.405196383108006 207.750225716397 35.896430434416004 H 0.0 **** 0.06
28486 C 167.65969810725898 152.9835548365686 30.759934452175884 C 0.0 **** -0.24
28487 H 167.38964335682078 152.76109405479997 29.727396425447864 H 0.0 **** 0.06
28488 H 167.71976442501523 152.0553057954715 31.327409454206915 H 0.0 **** 0.06
28489 H 166.90302608540273 153.632361086113 31.200883469373252 H 0.0 **** 0.06
28490 H 168.6265872103894 153.48665852359989 30.78096501463098 H 0.0 **** 0.06
28491 C 156.35262691176212 61.03944432585911 39.2362276485771 C 0.0 **** -0.24
28492 H 156.9791065342713 61.34990142455126 38.400259465961824 H 0.0 **** 0.06
28493 H 156.16238223285728 59.967669517042054 39.16791306216105 H 0.0 **** 0.06
28494 H 155.40697671470008 61.579885181526066 39.201077771007604 H 0.0 **** 0.06
28495 H 156.8629784113105 61.25936676447674 40.173607824628846 H 0.0 **** 0.06
28496 C 62.00509195475428 79.35543169752044 13.818781211351393 C 0.0 **** -0.24
28497 H 62.4566761608408 79.37720269423328 14.810720659758331 H 0.0 **** 0.06
28498 H 61.990891121317716 78.3300205261272 13.449107833357928 H 0.0 **** 0.06
28499 H 62.589172490048824 79.97829423195616 13.141323960034569 H 0.0 **** 0.06
28500 H 60.985621966747985 79.73650137655655 13.874941454362556 H 0.0 **** 0.06
28501 C 215.9550823039862 167.90179376555227 180.435016946213 C 0.0 **** -0.24
28502 H 215.1353875157271 168.61612475234278 180.5089211008103 H 0.0 **** 0.06
28503 H 215.57273650567498 166.9446524454035 180.08199385827209 H 0.0 **** 0.06
28504 H 216.41280933529077 167.77132367677945 181.41538914594832 H 0.0 **** 0.06
28505 H 216.7006240150714 168.27692551376475 179.73351008611604 H 0.0 **** 0.06
28506 C 132.27039985355282 109.34839521737149 94.78772871915783 C 0.0 **** -0.24
28507 H 132.47289746158646 108.29552317672284 94.98545663967388 H 0.0 **** 0.06
28508 H 132.72056509335448 109.95772932041245 95.57111708802012 H 0.0 **** 0.06
28509 H 131.19302743433542 109.51406142001844 94.77137261749226 H 0.0 **** 0.06
28510 H 132.69485654136588 109.62491560665569 93.82263694637209 H 0.0 **** 0.06
28511 C 13.752078704173755 199.17868188050392 69.9749447819198 C 0.0 **** -0.24
28512 H 14.264502423225736 200.0462902698492 70.38986132891394 H 0.0 **** 0.06
28513 H 14.112515902051769 198.9942682649459 68.96282928218154 H 0.0 **** 0.06
28514 H 12.678608643543981 199.36990325813525 69.94906862967308 H 0.0 **** 0.06
28515 H 13.951735893848365 198.30669011245132 70.59691703405555 H 0.0 **** 0.06
28516 C 190.7139000237131 171.28365007858088 194.21777877153022 C 0.0 **** -0.24
28517 H 189.67623120813573 171.5063951696195 193.9716219699175 H 0.0 **** 0.06
28518 H 191.33299461338243 171.41131686571507 193.32972572183394 H 0.0 **** 0.06
28519 H 190.7910951100027 170.2555631796957 194.57008455585014 H 0.0 **** 0.06
28520 H 191.0554057165446 171.96294541448296 194.9990839947863 H 0.0 **** 0.06
28521 C 150.6470045018729 111.51963429907666 113.55517800204274 C 0.0 **** -0.24
28522 H 151.72476746412337 111.54853305429303 113.71816883179213 H 0.0 **** 0.06
28523 H 150.44333830569116 111.28939085698273 112.50984257282505 H 0.0 **** 0.06
28524 H 150.21644210810507 112.489979386081 113.80531316131646 H 0.0 **** 0.06
28525 H 150.2045658626654 110.7512145164544 114.18949987069641 H 0.0 **** 0.06
28526 C 158.8491894379278 18.03204257831439 37.03709030686176 C 0.0 **** -0.24
28527 H 159.65198258018955 18.2211258404202 36.32521123797187 H 0.0 **** 0.06
28528 H 159.23514473119513 17.445439693856883 37.872452953583974 H 0.0 **** 0.06
28529 H 158.0486475367461 17.479592495716105 36.54510381555015 H 0.0 **** 0.06
28530 H 158.46130447812146 18.981096532042443 37.407842240396064 H 0.0 **** 0.06
28531 C 203.4048363680689 67.55773479715663 95.06348972519679 C 0.0 **** -0.24
28532 H 203.83000698093787 68.48280123946651 95.45380392788157 H 0.0 **** 0.06
28533 H 203.97106858253346 67.2395903324367 94.18848383675167 H 0.0 **** 0.06
28534 H 202.36540834507764 67.72601372024104 94.78380828820907 H 0.0 **** 0.06
28535 H 203.4545587006554 66.78406068953024 95.83026884372025 H 0.0 **** 0.06
28536 C 200.7651196586574 163.4220908353264 4.297312935139416 C 0.0 **** -0.24
28537 H 200.11371225304347 163.9064747219367 3.570577245879747 H 0.0 **** 0.06
28538 H 200.27762234456662 163.41341892184136 5.272032534986408 H 0.0 **** 0.06
28539 H 201.70481472318755 163.97001691211364 4.3658646246597925 H 0.0 **** 0.06
28540 H 200.96432931383197 162.39845278541392 3.9807773350316893 H 0.0 **** 0.06
28541 C 154.99965934100078 182.63938548393094 170.91684110580962 C 0.0 **** -0.24
28542 H 154.82818977858352 183.37108261380104 171.70588649337446 H 0.0 **** 0.06
28543 H 155.91737902893988 182.88890946670284 170.38312440776275 H 0.0 **** 0.06
28544 H 154.1598205791126 182.6526066037387 170.2215942390589 H 0.0 **** 0.06
28545 H 155.09268830363055 181.64600892556456 171.35551382934875 H 0.0 **** 0.06
28546 C 56.7355968024456 9.210817357937017 70.51618415395825 C 0.0 **** -0.24
28547 H 56.77090209531326 8.675080612218252 71.46429110804615 H 0.0 **** 0.06
28548 H 57.013484314989654 10.2524908893799 70.6763993802906 H 0.0 **** 0.06
28549 H 55.72567464386583 9.163201196532228 70.10912264980146 H 0.0 **** 0.06
28550 H 57.43165345263219 8.751856578403164 69.81346138233289 H 0.0 **** 0.06
28551 C 164.4361097931663 208.3976950031423 204.33506945834353 C 0.0 **** -0.24
28552 H 163.43954803927653 208.02064936477512 204.1072046321965 H 0.0 **** 0.06
28553 H 164.61846158505008 209.3093725309812 203.76649049381706 H 0.0 **** 0.06
28554 H 165.17931411949806 207.64658591743364 204.0661166370701 H 0.0 **** 0.06
28555 H 164.508052966004 208.61397265242834 205.40075106508132 H 0.0 **** 0.06
28556 C 120.7216981193442 108.20702373970254 181.78396955800133 C 0.0 **** -0.24
28557 H 121.32671076919316 109.11356095435725 181.7937729237657 H 0.0 **** 0.06
28558 H 120.33003660298014 108.04191203524492 180.77945298490386 H 0.0 **** 0.06
28559 H 119.8925635920658 108.3170230707242 182.4829840220233 H 0.0 **** 0.06
28560 H 121.33569067868486 107.35693551440941 182.07974864167366 H 0.0 **** 0.06
28561 C 69.80637734932259 207.28281419480683 130.8211890341919 C 0.0 **** -0.24
28562 H 70.68349283903177 207.26579443569045 131.4697697300562 H 0.0 **** 0.06
28563 H 70.09695478419775 206.99330254543173 129.81125443340187 H 0.0 **** 0.06
28564 H 69.38612767058459 208.28809784717637 130.80592105460846 H 0.0 **** 0.06
28565 H 69.06143521605401 206.58366430257675 131.20037734267123 H 0.0 **** 0.06
28566 C 109.70734886037296 159.87029854470592 42.88849478635461 C 0.0 **** -0.24
28567 H 109.86160289305745 159.08437120619652 43.62836846609861 H 0.0 **** 0.06
28568 H 108.91538117035692 160.5372230978386 43.227699646889846 H 0.0 **** 0.06
28569 H 109.42234605695715 159.421703355401 41.93673489101599 H 0.0 **** 0.06
28570 H 110.63063957229879 160.43584530360755 42.76185646056905 H 0.0 **** 0.06
28571 C 46.80003117150123 215.34391625807854 124.73930416567431 C 0.0 **** -0.24
28572 H 45.95584309060192 214.67109186043857 124.89390031715375 H 0.0 **** 0.06
28573 H 47.34783484990109 215.45957330408606 125.6741949100154 H 0.0 **** 0.06
28574 H 46.43400276056178 216.3155480443333 124.40906335344125 H 0.0 **** 0.06
28575 H 47.460328566997504 214.92719832996738 123.97885518539071 H 0.0 **** 0.06
28576 C 191.63470188261473 63.11806336386377 73.71288988267874 C 0.0 **** -0.24
28577 H 190.79987864749577 62.6367201005458 73.20388304681272 H 0.0 **** 0.06
28578 H 191.87214797626933 62.56473028310219 74.6228547354258 H 0.0 **** 0.06
28579 H 191.36146504472734 64.14121309672487 73.97062499506238 H 0.0 **** 0.06
28580 H 192.5038363438915 63.12789024475558 73.05641533687445 H 0.0 **** 0.06
28581 C 190.3472325426241 9.319786778340088 127.76147171494931 C 0.0 **** -0.24
28582 H 190.2450152533242 9.312337784876831 128.84670453658555 H 0.0 **** 0.06
28583 H 190.5018766131846 10.343655451726349 127.41833279359803 H 0.0 **** 0.06
28584 H 189.4421631359424 8.917053407553311 127.30845702227167 H 0.0 **** 0.06
28585 H 191.20203559165014 8.70701966753903 127.47396977709009 H 0.0 **** 0.06
28586 C 19.28513553992616 80.6677079939538 71.32705160200726 C 0.0 **** -0.24
28587 H 19.529631788090114 79.60557076819475 71.31191107225902 H 0.0 **** 0.06
28588 H 18.314209619857905 80.81054901095968 71.80168561146485 H 0.0 **** 0.06
28589 H 19.250231431337028 81.04668460835813 70.30605769825837 H 0.0 **** 0.06
28590 H 20.047718201878695 81.20759052071332 71.88905132647835 H 0.0 **** 0.06
28591 C 180.65227131651872 40.493940963674106 49.44528649369977 C 0.0 **** -0.24
28592 H 180.3804177952498 40.40281677249817 48.39329828334934 H 0.0 **** 0.06
28593 H 179.75956291888428 40.701108693112076 50.03434028053567 H 0.0 **** 0.06
28594 H 181.36630500174294 41.308355411364545 49.56632423451538 H 0.0 **** 0.06
28595 H 181.10348646953702 39.56151953171968 49.784072990085576 H 0.0 **** 0.06
28596 C 193.12540578825644 11.070445747474906 147.77334921807426 C 0.0 **** -0.24
28597 H 193.60792278364164 10.55890175137688 146.94078377411847 H 0.0 **** 0.06
28598 H 193.75118302851743 10.9899136231343 148.6618482609511 H 0.0 **** 0.06
28599 H 192.1558949398197 10.611714726675018 147.9684766329657 H 0.0 **** 0.06
28600 H 192.9852705993226 12.121328862251346 147.52187967762035 H 0.0 **** 0.06
28601 C 24.842657823661682 110.28541216112455 65.19990885752793 C 0.0 **** -0.24
28602 H 25.38223006710254 110.25539755386774 66.14703032315754 H 0.0 **** 0.06
28603 H 24.848033030697408 111.3033901166587 64.8111247079199 H 0.0 **** 0.06
28604 H 23.813108335836006 109.96229629997498 65.35841801422794 H 0.0 **** 0.06
28605 H 25.32645479893604 109.61966113435898 64.48561887199969 H 0.0 **** 0.06
28606 C 65.56603483941862 195.75210134195555 177.0592683440837 C 0.0 **** -0.24
28607 H 66.25747965164177 195.0634077373613 176.57254938263782 H 0.0 **** 0.06
28608 H 65.68707706335286 195.68420655854413 178.14029758114796 H 0.0 **** 0.06
28609 H 64.54293934195687 195.48835774998534 176.7901009831932 H 0.0 **** 0.06
28610 H 65.77729202651496 196.7701521847367 176.73180686204316 H 0.0 **** 0.06
28611 C 98.62509016352614 202.25274609760672 112.24658652728634 C 0.0 **** -0.24
28612 H 97.61265477969927 201.85472286894824 112.31625174853725 H 0.0 **** 0.06
28613 H 98.59490287424406 203.33902759792767 112.3330698857924 H 0.0 **** 0.06
28614 H 99.05796279687571 201.97621616474547 111.2845503338285 H 0.0 **** 0.06
28615 H 99.23417690523375 201.8396317893753 113.05084957668306 H 0.0 **** 0.06
28616 C 30.367106528100962 67.43746225809025 177.2781986477669 C 0.0 **** -0.24
28617 H 29.721855976716085 67.69146105031126 176.43652561382947 H 0.0 **** 0.06
28618 H 30.742629323257574 68.35235772668403 177.73664717336243 H 0.0 **** 0.06
28619 H 31.20491714675707 66.83611785923881 176.9247861074481 H 0.0 **** 0.06
28620 H 29.79703055621114 66.86982157563415 178.0134146517403 H 0.0 **** 0.06
28621 C 48.43508924660287 64.67949458313024 57.74023551065288 C 0.0 **** -0.24
28622 H 48.352136095106246 65.60651661711883 57.17266166989732 H 0.0 **** 0.06
28623 H 47.737834017751325 64.7030630616579 58.5776397183145 H 0.0 **** 0.06
28624 H 49.452499026224885 64.57344496644664 58.11604922429623 H 0.0 **** 0.06
28625 H 48.196528454921676 63.83487195821782 57.09211241654319 H 0.0 **** 0.06
28626 C 1.0456269708293178 57.767733120197576 48.78795700918988 C 0.0 **** -0.24
28627 H 1.4300378778575578 56.7638384208214 48.971826108023265 H 0.0 **** 0.06
28628 H -0.03271280480376504 57.71997089394418 48.63196900582341 H 0.0 **** 0.06
28629 H 1.523710128736525 58.18340281906522 47.90126917063691 H 0.0 **** 0.06
28630 H 1.2605585951515081 58.402186384553104 49.64810966838712 H 0.0 **** 0.06
28631 C 45.672451134323154 190.55971339622815 98.91980351144319 C 0.0 **** -0.24
28632 H 45.13117325263313 190.87938020532624 98.03014205995113 H 0.0 **** 0.06
28633 H 46.343808011238025 191.35647363465182 99.24201807414268 H 0.0 **** 0.06
28634 H 46.25378332711466 189.66593072405556 98.69017211698302 H 0.0 **** 0.06
28635 H 44.963413143475975 190.336602929452 99.7172701188788 H 0.0 **** 0.06
28636 C 172.8489641832337 60.73683184062969 17.270949794770985 C 0.0 **** -0.24
28637 H 172.20794210950453 61.50279139081732 17.70760390040921 H 0.0 **** 0.06
28638 H 172.26203763828886 59.83812454191781 17.078969133783303 H 0.0 **** 0.06
28639 H 173.65797551471843 60.50141050917165 17.96328180924681 H 0.0 **** 0.06
28640 H 173.26790147042288 61.10500092061221 16.333944335644617 H 0.0 **** 0.06
28641 C 98.13388378942578 122.25736381039788 101.6645431692549 C 0.0 **** -0.24
28642 H 98.73287086953663 121.34769057815284 101.71197978478813 H 0.0 **** 0.06
28643 H 98.541517047765 122.92079649920679 100.90024324725431 H 0.0 **** 0.06
28644 H 98.15908886455647 122.75946749043281 102.63145564093873 H 0.0 **** 0.06
28645 H 97.10467634177992 122.00255655427891 101.41306868292901 H 0.0 **** 0.06
28646 C 152.26617417568184 172.87799800745697 104.96266923378 C 0.0 **** -0.24
28647 H 151.66182296324519 173.16650743756708 105.82289424130501 H 0.0 **** 0.06
28648 H 151.6779078957515 172.24194792177633 104.30265622072868 H 0.0 **** 0.06
28649 H 153.14668770902034 172.33384967774677 105.30399114363449 H 0.0 **** 0.06
28650 H 152.57849105752092 173.77251078688914 104.42212578541081 H 0.0 **** 0.06
28651 C 82.64204653772954 122.50781626131634 144.75408389250822 C 0.0 **** -0.24
28652 H 82.58312267131699 121.54284037930286 144.2504534079181 H 0.0 **** 0.06
28653 H 82.20874700987109 123.27737672242104 144.11595354773237 H 0.0 **** 0.06
28654 H 83.68606454046254 122.74855180791967 144.95602188661252 H 0.0 **** 0.06
28655 H 82.09136306436885 122.46083947800601 145.69376204837755 H 0.0 **** 0.06
28656 C 14.669398927747679 153.91823504222714 54.66685579824667 C 0.0 **** -0.24
28657 H 15.370138446886685 154.12766900260686 53.859138232682824 H 0.0 **** 0.06
28658 H 13.662745581988943 153.8213522090906 54.25909740157111 H 0.0 **** 0.06
28659 H 14.692054399677218 154.73451085980452 55.38892896469093 H 0.0 **** 0.06
28660 H 14.951943803335524 152.98784263378047 55.16045939756073 H 0.0 **** 0.06
28661 C 78.8323926046063 88.81376172181677 135.23166130125543 C 0.0 **** -0.24
28662 H 79.07616187129344 89.57439903740017 135.97378566161967 H 0.0 **** 0.06
28663 H 78.1329372569977 89.22705228470899 134.50424788221443 H 0.0 **** 0.06
28664 H 78.37837441055206 87.95567556213825 135.7260586494083 H 0.0 **** 0.06
28665 H 79.74329765930128 88.49916823625819 134.7225433839596 H 0.0 **** 0.06
28666 C 132.5027512917427 100.53974093879987 162.6553953078828 C 0.0 **** -0.24
28667 H 131.47586111309982 100.82525292174358 162.88294222635167 H 0.0 **** 0.06
28668 H 133.0555372528326 100.40271837709486 163.58521391877161 H 0.0 **** 0.06
28669 H 132.97548924710276 101.32384148794932 162.06394430301503 H 0.0 **** 0.06
28670 H 132.50361679241217 99.60776810430514 162.0915708709341 H 0.0 **** 0.06
28671 C 26.966238399288045 84.10247116460282 54.58748623135892 C 0.0 **** -0.24
28672 H 27.7678204892199 84.29697937360318 53.874455476146494 H 0.0 **** 0.06
28673 H 27.187228090398094 84.60733548978753 55.52777432669697 H 0.0 **** 0.06
28674 H 26.885891225781734 83.0292599181404 54.75925084562219 H 0.0 **** 0.06
28675 H 26.025477652700033 84.47807869431442 54.186070831242986 H 0.0 **** 0.06
28676 C 11.994145662601 78.3124691015128 157.31208154909353 C 0.0 **** -0.24
28677 H 12.65127224052543 78.1163539811168 156.46540708958406 H 0.0 **** 0.06
28678 H 12.089515083099627 77.50608565777928 158.03983052136266 H 0.0 **** 0.06
28679 H 10.96211252843284 78.36922931020511 156.96540730425 H 0.0 **** 0.06
28680 H 12.274187158111317 79.25689410393592 157.77782536096475 H 0.0 **** 0.06
28681 C 213.0338571077388 89.40671033153346 209.50829733035698 C 0.0 **** -0.24
28682 H 213.40582172483474 89.0054461304946 210.45080223442784 H 0.0 **** 0.06
28683 H 213.30520646237244 88.73295595721645 208.694295645714 H 0.0 **** 0.06
28684 H 213.47678908192546 90.38678603539996 209.3305418198355 H 0.0 **** 0.06
28685 H 211.949407676443 89.50139812098497 209.5562428876915 H 0.0 **** 0.06
28686 C 211.9449143982635 185.88443035754375 11.27379160651384 C 0.0 **** -0.24
28687 H 212.50645445959915 186.78536420339958 11.520577137576083 H 0.0 **** 0.06
28688 H 212.53168833257675 185.00580005873695 11.543823648127244 H 0.0 **** 0.06
28689 H 211.7366373718388 185.8679642969339 10.204263824620398 H 0.0 **** 0.06
28690 H 211.0058323263671 185.87811601249857 11.828193218923786 H 0.0 **** 0.06
28691 C 20.28796040770628 20.332900914028357 18.176747160148807 C 0.0 **** -0.24
28692 H 19.569148366225576 20.068974398441725 18.952486278884237 H 0.0 **** 0.06
28693 H 21.212734371131404 19.777588287825495 18.333766721488928 H 0.0 **** 0.06
28694 H 20.494026828849755 21.402947175530073 18.220790173357216 H 0.0 **** 0.06
28695 H 19.875540650015537 20.08247467243723 17.19910776559692 H 0.0 **** 0.06
28696 C 112.65970814001673 19.169310300787856 29.49899832015207 C 0.0 **** -0.24
28697 H 112.40315979699591 19.382189090249256 28.461572808025963 H 0.0 **** 0.06
28698 H 113.6356242194388 19.59898556935238 29.726574941098463 H 0.0 **** 0.06
28699 H 112.69249283788554 18.091324831749404 29.651895676947987 H 0.0 **** 0.06
28700 H 111.90772998557685 19.60639180497145 30.155452994481138 H 0.0 **** 0.06
28701 C 184.88086033318012 175.1637483427623 185.4362130089936 C 0.0 **** -0.24
28702 H 184.69883117693854 175.50365699314995 184.4169477719842 H 0.0 **** 0.06
28703 H 185.80804577233664 175.60354179297457 185.80485651464014 H 0.0 **** 0.06
28704 H 184.9633466927021 174.07752986463788 185.44768179111773 H 0.0 **** 0.06
28705 H 184.05312807432625 175.4723611242477 186.07410216987057 H 0.0 **** 0.06
28706 C 80.52341579704131 101.97042906697259 128.81355247592705 C 0.0 **** -0.24
28707 H 80.587274122824 100.90051374449264 129.0098085337521 H 0.0 **** 0.06
28708 H 81.24515857175948 102.49775619873303 129.43623584369897 H 0.0 **** 0.06
28709 H 79.51673524839032 102.32207347925844 129.044867539623 H 0.0 **** 0.06
28710 H 80.74153746323003 102.16075759010961 127.76236355831769 H 0.0 **** 0.06
28711 C 156.08961127909424 120.40197255962842 28.137666877710032 C 0.0 **** -0.24
28712 H 155.48212267910827 119.9414537009752 27.358340165346164 H 0.0 **** 0.06
28713 H 155.52704681252112 121.21034350125488 28.606299786320477 H 0.0 **** 0.06
28714 H 157.0022903570706 120.80217392232468 27.696703276096386 H 0.0 **** 0.06
28715 H 156.34517412301892 119.65417947583087 28.888038961534463 H 0.0 **** 0.06
28716 C 93.04361832663886 74.49226965025069 109.70091124349476 C 0.0 **** -0.24
28717 H 93.4464109144335 73.75054402858616 109.01267266885974 H 0.0 **** 0.06
28718 H 93.79431556059325 75.26114524673487 109.8862572256701 H 0.0 **** 0.06
28719 H 92.77845180423122 74.00919977317345 110.6415936306763 H 0.0 **** 0.06
28720 H 92.15486322882896 74.94852506778416 109.26395870412891 H 0.0 **** 0.06
28721 C 12.969196416833043 128.62416215787835 167.38654635792471 C 0.0 **** -0.24
28722 H 13.597823851580955 129.00860324419511 166.58352224170858 H 0.0 **** 0.06
28723 H 13.126197801075094 129.2183005745295 168.287557049896 H 0.0 **** 0.06
28724 H 13.231388647586641 127.58466946499959 167.58620689501043 H 0.0 **** 0.06
28725 H 11.923079043144327 128.68335952688744 167.08850739278216 H 0.0 **** 0.06
28726 C 110.8992521036432 47.78935309563934 188.90147530427004 C 0.0 **** -0.24
28727 H 110.6147626295682 47.121417223656465 189.71542467116367 H 0.0 **** 0.06
28728 H 110.29537294935055 47.56565470732687 188.02160591172608 H 0.0 **** 0.06
28729 H 111.95342477282101 47.64499703120981 188.66624045163655 H 0.0 **** 0.06
28730 H 110.73242740986935 48.82286575862412 189.20458457408756 H 0.0 **** 0.06
28731 C 88.94066577591492 92.00511761600522 105.50295084140124 C 0.0 **** -0.24
28732 H 88.48386816535582 91.7808393638342 106.46760693005702 H 0.0 **** 0.06
28733 H 88.27344726290629 91.68558222221564 104.70252737705302 H 0.0 **** 0.06
28734 H 89.88980336875532 91.47431857747047 105.41877617655435 H 0.0 **** 0.06
28735 H 89.11558688703535 93.07756514959358 105.42577568071881 H 0.0 **** 0.06
28736 C 209.14455385137308 94.64265454835116 155.83804280344435 C 0.0 **** -0.24
28737 H 208.35191705514166 94.136284015301 156.38819270702584 H 0.0 **** 0.06
28738 H 208.82483602755656 95.65545883882608 155.59135447455253 H 0.0 **** 0.06
28739 H 209.35631972242248 94.09469392958466 154.92008501200593 H 0.0 **** 0.06
28740 H 210.0442355252866 94.68379826979573 156.4523645622944 H 0.0 **** 0.06
28741 C 182.3624338535825 36.2752995013264 156.32861973211448 C 0.0 **** -0.24
28742 H 182.68702498476566 36.89197496224004 155.49144586540433 H 0.0 **** 0.06
28743 H 183.23428943431506 35.93785465078864 156.8898834592258 H 0.0 **** 0.06
28744 H 181.81430853164008 35.411469809972374 155.95264229829598 H 0.0 **** 0.06
28745 H 181.71416980461086 36.86047362791891 156.98132342531449 H 0.0 **** 0.06
28746 C 204.11683513113024 40.43685831929696 12.68695315876613 C 0.0 **** -0.24
28747 H 204.36510949597 40.98240126971564 13.597323887909184 H 0.0 **** 0.06
28748 H 203.35678774007317 40.9846480505646 12.13064434573505 H 0.0 **** 0.06
28749 H 203.7361486659445 39.449179030961545 12.948120891091818 H 0.0 **** 0.06
28750 H 205.01132268810863 40.32986946988825 12.072045393588212 H 0.0 **** 0.06
28751 C 159.7125644111715 98.96772612603475 34.427968686738154 C 0.0 **** -0.24
28752 H 159.18506984126205 98.62001367886764 35.315254233288556 H 0.0 **** 0.06
28753 H 160.13095090904272 99.95624672257965 34.617467778384395 H 0.0 **** 0.06
28754 H 159.01724642664104 99.0211199117774 33.589864784209965 H 0.0 **** 0.06
28755 H 160.51683476136773 98.27214226165894 34.187536919429874 H 0.0 **** 0.06
28756 C 105.09325074592395 74.219223991357 203.0222942105895 C 0.0 **** -0.24
28757 H 104.15250272856754 74.09002420214331 203.55823239077327 H 0.0 **** 0.06
28758 H 105.92315707738989 74.15613407391125 203.72615306053189 H 0.0 **** 0.06
28759 H 105.10176028251335 75.19392166824916 202.53451848145406 H 0.0 **** 0.06
28760 H 105.19293495174826 73.43617149810662 202.2710299571628 H 0.0 **** 0.06
28761 C 36.18686910499855 73.70934611340078 58.86711730357462 C 0.0 **** -0.24
28762 H 36.0027761899629 74.29113648364466 59.77117423058627 H 0.0 **** 0.06
28763 H 35.52998923226909 72.84003784208244 58.85629670436805 H 0.0 **** 0.06
28764 H 37.22631712518344 73.38136581996127 58.85105865675308 H 0.0 **** 0.06
28765 H 35.98722663003974 74.32772622952166 57.991093857897766 H 0.0 **** 0.06
28766 C 160.58745968000906 89.0643346980515 147.72695728685278 C 0.0 **** -0.24
28767 H 161.65005366544415 89.18061801912675 147.51290272871557 H 0.0 **** 0.06
28768 H 160.32483617960705 88.0064363919998 147.70043899194627 H 0.0 **** 0.06
28769 H 160.0055670578422 89.60243145486216 146.97901144374913 H 0.0 **** 0.06
28770 H 160.37065077437822 89.46826537269597 148.7159446719529 H 0.0 **** 0.06
28771 C 65.6289966779978 107.38877213691114 168.81346598732358 C 0.0 **** -0.24
28772 H 65.5767211962804 107.54025592718807 167.7352405589192 H 0.0 **** 0.06
28773 H 64.8556823195679 107.98363418757373 169.30086131238386 H 0.0 **** 0.06
28774 H 66.609026019704 107.69767994970914 169.17725794894946 H 0.0 **** 0.06
28775 H 65.47276721980347 106.33400761808235 169.03925637624997 H 0.0 **** 0.06
28776 C 136.06005525496806 14.001031016626229 136.12434987688545 C 0.0 **** -0.24
28777 H 135.60464240397727 13.72597195959662 135.17259843859273 H 0.0 **** 0.06
28778 H 135.75747580113557 13.285829416527804 136.89012432495207 H 0.0 **** 0.06
28779 H 135.73112257419473 15.000061655738165 136.408928856692 H 0.0 **** 0.06
28780 H 137.14481526124524 13.989836608609096 136.02418736069768 H 0.0 **** 0.06
28781 C 194.02239778041314 169.71716783408536 131.2997971321783 C 0.0 **** -0.24
28782 H 194.7575392393771 169.48463740832545 132.07121258328004 H 0.0 **** 0.06
28783 H 193.0355369871533 169.39407320476406 131.63002547573097 H 0.0 **** 0.06
28784 H 194.28734180119662 169.19876290488205 130.37918043436576 H 0.0 **** 0.06
28785 H 194.0124377035885 170.79262205289348 131.12182196139145 H 0.0 **** 0.06
28786 C 195.8640560164634 115.6443802445728 150.11867537412644 C 0.0 **** -0.24
28787 H 196.68887051478106 115.52639959144653 150.82123693079967 H 0.0 **** 0.06
28788 H 196.26060543164192 115.87882805912045 149.13016541377948 H 0.0 **** 0.06
28789 H 195.2155598907228 116.4538942780917 150.45198892275812 H 0.0 **** 0.06
28790 H 195.29336077926388 114.71744107724373 150.07070822030119 H 0.0 **** 0.06
28791 C 46.77090457703639 168.89997565130602 54.9542880769051 C 0.0 **** -0.24
28792 H 47.71740746319915 169.0431206047815 55.47590378907351 H 0.0 **** 0.06
28793 H 46.947711682702334 168.36690316192028 54.02038117750588 H 0.0 **** 0.06
28794 H 46.32380660017611 169.87143753024284 54.73928485988674 H 0.0 **** 0.06
28795 H 46.09423481023617 168.32032121569893 55.58208891886059 H 0.0 **** 0.06
28796 C 12.253345358925074 24.141288391723776 203.605038133102 C 0.0 **** -0.24
28797 H 11.916850567536073 23.982274768294758 204.62928812754313 H 0.0 **** 0.06
28798 H 13.193071884964155 24.692536762573695 203.61372193879876 H 0.0 **** 0.06
28799 H 11.500863752850464 24.712461479898423 203.0610327308102 H 0.0 **** 0.06
28800 H 12.40046673063442 23.177341308500218 203.1171954620408 H 0.0 **** 0.06
28801 C 181.77622145947473 185.55767008776274 140.10491929099544 C 0.0 **** -0.24
28802 H 181.95224992407688 185.16029209746398 139.1055000381824 H 0.0 **** 0.06
28803 H 180.70270093199133 185.59693151583696 140.29676662509547 H 0.0 **** 0.06
28804 H 182.19544327065205 186.56117648556273 140.17610296050407 H 0.0 **** 0.06
28805 H 182.25310287877357 184.91204455653502 140.84231533132743 H 0.0 **** 0.06
28806 C 139.4164033172791 12.032318383437413 171.74454796986257 C 0.0 **** -0.24
28807 H 139.77421694153003 13.036399442260716 171.51555717640548 H 0.0 **** 0.06
28808 H 140.17570696355864 11.497458081989308 172.3163561478567 H 0.0 **** 0.06
28809 H 139.21542194123697 11.497083696907254 170.81710824943116 H 0.0 **** 0.06
28810 H 138.50010721912184 12.09984004289548 172.3310941523754 H 0.0 **** 0.06
28811 C 76.23784616345053 209.274614454484 178.08111835072285 C 0.0 **** -0.24
28812 H 77.26118758950246 209.64795087623955 178.11109114622332 H 0.0 **** 0.06
28813 H 76.2331683881976 208.25729434821545 177.68959305264934 H 0.0 **** 0.06
28814 H 75.63651400549709 209.9152589775597 177.436049076797 H 0.0 **** 0.06
28815 H 75.82006666322663 209.27984588459398 179.08820775576544 H 0.0 **** 0.06
28816 C 65.02345681635505 28.27459823571644 8.075335083029188 C 0.0 **** -0.24
28817 H 65.08221336414489 27.999234278128398 7.0226644395744415 H 0.0 **** 0.06
28818 H 64.05772417020803 27.96798667758445 8.477169558357673 H 0.0 **** 0.06
28819 H 65.13265554326358 29.354723003923766 8.175241378217322 H 0.0 **** 0.06
28820 H 65.82123418780367 27.77644898322906 8.626264955967116 H 0.0 **** 0.06
28821 C 23.754446480006095 112.47944058676286 155.81023066486966 C 0.0 **** -0.24
28822 H 23.202432655048113 112.07766812348812 154.96114778070796 H 0.0 **** 0.06
28823 H 23.19482879715696 113.30505383129211 156.24904263332996 H 0.0 **** 0.06
28824 H 24.727607395247503 112.83830867422206 155.47373596700515 H 0.0 **** 0.06
28825 H 23.89423641193696 111.69676246513798 156.5564879162087 H 0.0 **** 0.06
28826 C 40.37167078993849 0.05798096827496835 97.9820509750125 C 0.0 **** -0.24
28827 H 39.60840242915771 0.8368466926599893 97.95269517739968 H 0.0 **** 0.06
28828 H 39.99489220483014 -0.7974257275386023 98.54265280943548 H 0.0 **** 0.06
28829 H 41.26715534648753 0.44570464954014 98.46810025110778 H 0.0 **** 0.06
28830 H 40.61393192945462 -0.25151133924882885 96.96567595652078 H 0.0 **** 0.06
28831 C 41.80255991847349 37.69825281851047 187.44133146811524 C 0.0 **** -0.24
28832 H 42.18936059101054 38.02615797036185 186.4763534417091 H 0.0 **** 0.06
28833 H 41.55481359108222 36.63736693115169 187.39188403885674 H 0.0 **** 0.06
28834 H 40.906965290735855 38.26988312269165 187.68729938458617 H 0.0 **** 0.06
28835 H 42.55826680149511 37.85993990045918 188.20935068269915 H 0.0 **** 0.06
28836 C 183.74945418393963 118.50405843796783 43.5102079362797 C 0.0 **** -0.24
28837 H 184.81478529728952 118.43655346017063 43.291880618957435 H 0.0 **** 0.06
28838 H 183.60588488850564 118.64773838665242 44.5813554868397 H 0.0 **** 0.06
28839 H 183.25505783775282 117.58398685783602 43.197582462270105 H 0.0 **** 0.06
28840 H 183.3204435004318 119.34846000599616 42.96981735653168 H 0.0 **** 0.06
28841 C 82.19185192930343 18.30040599027666 19.89174561315049 C 0.0 **** -0.24
28842 H 82.12066700129549 17.480262062871574 20.60566631524891 H 0.0 **** 0.06
28843 H 82.19698223348945 17.899571274540918 18.877332297548435 H 0.0 **** 0.06
28844 H 83.11335938785408 18.855362507858544 20.06756200442237 H 0.0 **** 0.06
28845 H 81.33831210781977 18.96558108987665 20.01563252423125 H 0.0 **** 0.06
28846 C 105.29714859100615 165.00090120161934 90.80964234153059 C 0.0 **** -0.24
28847 H 105.77059878078232 164.46063377767285 89.9892246537127 H 0.0 **** 0.06
28848 H 105.88935207875498 164.87634778057128 91.71574752114996 H 0.0 **** 0.06
28849 H 104.29403813117999 164.6055312160202 90.97273168583094 H 0.0 **** 0.06
28850 H 105.23398413675805 166.05960983945016 90.55814202617374 H 0.0 **** 0.06
28851 C 161.70105640442972 212.4425924519464 203.34419177572815 C 0.0 **** -0.24
28852 H 162.7379872516936 212.69396267925387 203.12370697980379 H 0.0 **** 0.06
28853 H 161.66814928935742 211.54204464926997 203.95739232466957 H 0.0 **** 0.06
28854 H 161.16323166472324 212.2683088248405 202.41213174128194 H 0.0 **** 0.06
28855 H 161.23414300405784 213.26723792194852 203.88324081879054 H 0.0 **** 0.06
28856 C 25.529477380026293 79.6945539320571 214.58845600286617 C 0.0 **** -0.24
28857 H 25.592534779210112 80.57567545838758 215.22782582900598 H 0.0 **** 0.06
28858 H 24.563467446127333 79.21054132421902 214.73095770022923 H 0.0 **** 0.06
28859 H 26.327593901566246 78.99908547169632 214.84868624737453 H 0.0 **** 0.06
28860 H 25.635000852534674 79.99515330831444 213.5456396417759 H 0.0 **** 0.06
28861 C 39.90334136399639 117.30997589574422 64.37679764270224 C 0.0 **** -0.24
28862 H 40.10855954374384 117.22063432926477 65.44396292232122 H 0.0 **** 0.06
28863 H 40.774107989709705 116.97799331583458 63.81045922337344 H 0.0 **** 0.06
28864 H 39.686958065709476 118.3498439722653 64.1341234366648 H 0.0 **** 0.06
28865 H 39.04389132344755 116.68964095529152 64.12030915237973 H 0.0 **** 0.06
28866 C 103.79143395986374 107.18817741781919 163.8783947482877 C 0.0 **** -0.24
28867 H 104.02973417156265 107.1860759333905 162.81454572827283 H 0.0 **** 0.06
28868 H 103.16932032340462 106.32425581363543 164.11322922002523 H 0.0 **** 0.06
28869 H 103.25377379619273 108.10308655881266 164.1284786513328 H 0.0 **** 0.06
28870 H 104.714289064682 107.13958436466459 164.45740021211964 H 0.0 **** 0.06
28871 C 148.26715842376666 197.0921036561441 129.84081380201394 C 0.0 **** -0.24
28872 H 149.33541839529528 197.31070309434548 129.87104765093898 H 0.0 **** 0.06
28873 H 148.0544316392622 196.23124305159442 130.4743565903873 H 0.0 **** 0.06
28874 H 147.97091023321298 196.87108333557674 128.81488730284167 H 0.0 **** 0.06
28875 H 147.7104325622813 197.95693235639231 130.2007148427935 H 0.0 **** 0.06
28876 C 144.00231412638783 67.2884588793886 216.48967052679944 C 0.0 **** -0.24
28877 H 143.97933745912843 67.20448432671895 217.575660611682 H 0.0 **** 0.06
28878 H 144.78170751082098 66.63934818547341 216.09151806502683 H 0.0 **** 0.06
28879 H 144.21156787102166 68.32120110761252 216.20983216918236 H 0.0 **** 0.06
28880 H 143.03686945433515 66.99102119938857 216.08182554664842 H 0.0 **** 0.06
28881 C 12.162421348557118 31.037709175680675 4.566584899997025 C 0.0 **** -0.24
28882 H 11.899798480154786 30.91817612145897 5.616930646496485 H 0.0 **** 0.06
28883 H 11.253348328659271 31.149966029927327 3.974728667216681 H 0.0 **** 0.06
28884 H 12.710950786238882 30.158647500560306 4.226437601216958 H 0.0 **** 0.06
28885 H 12.786362852340318 31.922980863866826 4.44673848897304 H 0.0 **** 0.06
28886 C 123.00240508520663 110.53484397242788 185.80254528857552 C 0.0 **** -0.24
28887 H 122.10669431665984 109.9137072266456 185.84433677711704 H 0.0 **** 0.06
28888 H 123.87338615699339 109.93303910123696 186.06174406146067 H 0.0 **** 0.06
28889 H 122.90605872575209 111.35871575475711 186.50907326902657 H 0.0 **** 0.06
28890 H 123.1211975528211 110.9323342306722 184.79448825444337 H 0.0 **** 0.06
28891 C 82.75295282153104 193.7460123416491 203.2977175346976 C 0.0 **** -0.24
28892 H 83.12126929974568 192.7273815782375 203.42127919406886 H 0.0 **** 0.06
28893 H 83.50604583405055 194.34489648333746 202.78498188519495 H 0.0 **** 0.06
28894 H 82.54919515800958 194.17944924359765 204.2768219224008 H 0.0 **** 0.06
28895 H 81.83606726629012 193.73266644531114 202.7089247930058 H 0.0 **** 0.06
28896 C 14.563740700460485 17.608960112185798 62.52612449340933 C 0.0 **** -0.24
28897 H 13.905365822174701 18.098707342325554 61.808531078322375 H 0.0 **** 0.06
28898 H 15.416997099648086 18.25500359222184 62.735567793263954 H 0.0 **** 0.06
28899 H 14.914711623670087 16.66507094036092 62.11053003073994 H 0.0 **** 0.06
28900 H 14.015514424182513 17.4190100687249 63.44912290911131 H 0.0 **** 0.06
28901 C 60.79407011885101 93.10006045169457 139.6392587214532 C 0.0 **** -0.24
28902 H 60.688237894754764 92.02477203648708 139.7890369950345 H 0.0 **** 0.06
28903 H 60.56713632855818 93.34528445828805 138.60178468510207 H 0.0 **** 0.06
28904 H 61.816315196154505 93.39965658834178 139.86909188791384 H 0.0 **** 0.06
28905 H 60.102866739114944 93.62682824885893 140.29654381809377 H 0.0 **** 0.06
28906 C 126.38188095733585 154.40778884525974 152.413155387754 C 0.0 **** -0.24
28907 H 126.91007762565732 154.11423175949966 153.32014692494016 H 0.0 **** 0.06
28908 H 126.00108772996475 155.42335431446998 152.52723191567037 H 0.0 **** 0.06
28909 H 125.55033918684546 153.72550088892 152.23929754348092 H 0.0 **** 0.06
28910 H 127.06643225384835 154.36883403500957 151.56545190629163 H 0.0 **** 0.06
28911 C 93.52572190830125 68.71089256531451 13.025033881541802 C 0.0 **** -0.24
28912 H 93.94802336256282 68.19720689558528 13.888020921832009 H 0.0 **** 0.06
28913 H 92.60222145987757 68.21518215455447 12.722871214616717 H 0.0 **** 0.06
28914 H 94.2382542017661 68.6842593439946 12.200978344343184 H 0.0 **** 0.06
28915 H 93.31270795628132 69.74715161590393 13.287914798621301 H 0.0 **** 0.06
28916 C 148.80045666651228 76.02930795814518 41.24988719993695 C 0.0 **** -0.24
28917 H 149.64647980728387 75.48816441905808 40.825045266215454 H 0.0 **** 0.06
28918 H 148.2254924573067 76.49122138668395 40.44699848573623 H 0.0 **** 0.06
28919 H 149.1659559071527 76.8021571915902 41.926520420042436 H 0.0 **** 0.06
28920 H 148.16496928722768 75.33532369971232 41.800136033353 H 0.0 **** 0.06
28921 C 117.93898368492135 166.3169787786518 152.2894397716118 C 0.0 **** -0.24
28922 H 117.6190083907439 165.62232651586078 151.51345061941078 H 0.0 **** 0.06
28923 H 118.79047273788045 166.89588373192154 151.92999352271056 H 0.0 **** 0.06
28924 H 118.22854708619882 165.75819741062656 153.17893712532577 H 0.0 **** 0.06
28925 H 117.11808791450447 166.9911411065445 152.53402396537916 H 0.0 **** 0.06
28926 C 177.66499974437986 194.03668741256553 93.37457948666419 C 0.0 **** -0.24
28927 H 177.80673641374062 193.68378419726443 92.35248057050215 H 0.0 **** 0.06
28928 H 178.41669067745158 194.79224912771417 93.60585722970889 H 0.0 **** 0.06
28929 H 177.7675018422014 193.1981804967138 94.0643393217809 H 0.0 **** 0.06
28930 H 176.67039168495992 194.4691092635877 93.47492517446086 H 0.0 **** 0.06
28931 C 64.36369391501246 26.846429634029207 170.28308131946835 C 0.0 **** -0.24
28932 H 65.17273689183443 26.206973322970555 170.63558411089602 H 0.0 **** 0.06
28933 H 64.75474730035928 27.840828944636073 170.0667403727586 H 0.0 **** 0.06
28934 H 63.5951193278118 26.917691220436055 171.05241091025323 H 0.0 **** 0.06
28935 H 63.93301236769345 26.420641758538892 169.37724291590507 H 0.0 **** 0.06
28936 C 33.959126013977055 54.31576611400686 16.541205673296474 C 0.0 **** -0.24
28937 H 34.19274983914613 53.389285004690805 17.06649969786926 H 0.0 **** 0.06
28938 H 33.34374122958252 54.950610014475615 17.179885524117424 H 0.0 **** 0.06
28939 H 33.416199009932654 54.086785953617465 15.624660269751018 H 0.0 **** 0.06
28940 H 34.88506841419115 54.83684073644645 16.294880541064174 H 0.0 **** 0.06
28941 C 110.23738715931724 104.25090462555652 146.8077882039588 C 0.0 **** -0.24
28942 H 109.49078666222111 103.5132654232349 147.0984980362183 H 0.0 **** 0.06
28943 H 109.75492918123798 105.21644909688946 146.65582008066662 H 0.0 **** 0.06
28944 H 110.71882659750302 103.93455772784627 145.88240620400876 H 0.0 **** 0.06
28945 H 110.98712025475298 104.33882075981153 147.5949331703029 H 0.0 **** 0.06
28946 C 205.41486413728234 149.09215383916666 93.14790156862846 C 0.0 **** -0.24
28947 H 205.00227816700567 150.0972592688292 93.2354288754483 H 0.0 **** 0.06
28948 H 205.33567294324007 148.75724387243105 92.11295556513467 H 0.0 **** 0.06
28949 H 204.85762732573528 148.41355049515283 93.79265016344227 H 0.0 **** 0.06
28950 H 206.46191758385672 149.1013130014831 93.44820691449696 H 0.0 **** 0.06
28951 C 13.28062081198405 57.15621908143065 40.27664701828573 C 0.0 **** -0.24
28952 H 13.012592538723496 56.41836138543175 39.51974212328207 H 0.0 **** 0.06
28953 H 12.393212899136387 57.42827284559709 40.84867681892182 H 0.0 **** 0.06
28954 H 13.686704117723622 58.0436182508635 39.79167671955929 H 0.0 **** 0.06
28955 H 14.028793039910425 56.73251283757281 40.94610535313605 H 0.0 **** 0.06
28956 C 203.56166890125252 162.59500889119062 121.15202124187356 C 0.0 **** -0.24
28957 H 204.09085562007442 163.19727730624115 120.41421619113193 H 0.0 **** 0.06
28958 H 203.37136065476784 163.19578205548964 122.0420406422232 H 0.0 **** 0.06
28959 H 204.17144001680376 161.73158666760978 121.41987456633619 H 0.0 **** 0.06
28960 H 202.6150567238739 162.2545662627332 120.73236740984724 H 0.0 **** 0.06
28961 C 83.27246901807302 152.80503720548427 32.08102163430567 C 0.0 **** -0.24
28962 H 82.68294385240898 152.51131638854116 32.94981234903008 H 0.0 **** 0.06
28963 H 84.11462953584368 153.4174992309321 32.40328560681115 H 0.0 **** 0.06
28964 H 82.64823477314002 153.3778200506328 31.39533835963897 H 0.0 **** 0.06
28965 H 83.64336095076544 151.9135394854544 31.574943446772465 H 0.0 **** 0.06
28966 C 136.76822919119508 192.34778481170648 163.94787039595334 C 0.0 **** -0.24
28967 H 135.8235404285116 192.4025710112759 164.4886103946375 H 0.0 **** 0.06
28968 H 137.4089353355925 193.17691429660965 164.2501105172278 H 0.0 **** 0.06
28969 H 136.57729463657648 192.40765101715573 162.8758796363708 H 0.0 **** 0.06
28970 H 137.26277669257883 191.40309803023973 164.17585900419024 H 0.0 **** 0.06
28971 C 114.08394805976353 144.02713564799694 130.16821308888672 C 0.0 **** -0.24
28972 H 114.17106410573594 144.68515156434728 131.0334072882011 H 0.0 **** 0.06
28973 H 115.07837146429897 143.7253526231372 129.84034692111027 H 0.0 **** 0.06
28974 H 113.57904468882403 144.55503428250188 129.360030107329 H 0.0 **** 0.06
28975 H 113.50621219995925 143.14325420334075 130.4412424455955 H 0.0 **** 0.06
28976 C 88.91603026181933 66.07729548736239 166.96492707731124 C 0.0 **** -0.24
28977 H 89.59781059431113 65.335218969435 166.55080253352915 H 0.0 **** 0.06
28978 H 87.97284833763386 66.04800765837072 166.41975443476798 H 0.0 **** 0.06
28979 H 89.3586253713692 67.06913685412766 166.8730444973958 H 0.0 **** 0.06
28980 H 88.73544987772458 65.85694677240855 168.01688634454212 H 0.0 **** 0.06
28981 C 54.75558837530525 31.292506257984485 176.56109184591514 C 0.0 **** -0.24
28982 H 53.85662840342354 31.2751364108901 175.9453326516329 H 0.0 **** 0.06
28983 H 55.22256966735762 30.30770423433586 176.55091431251861 H 0.0 **** 0.06
28984 H 54.49035428528947 31.559159732442055 177.58388260135825 H 0.0 **** 0.06
28985 H 55.454103373914336 32.02963384819907 176.16339237158854 H 0.0 **** 0.06
28986 C 173.4334531024083 91.21383165942574 168.87907016673591 C 0.0 **** -0.24
28987 H 173.6524071320774 90.71633828320064 167.93518427286367 H 0.0 **** 0.06
28988 H 173.35015780546183 92.28761863333945 168.7129239791609 H 0.0 **** 0.06
28989 H 174.23702465223266 91.01648483517737 169.58897237193315 H 0.0 **** 0.06
28990 H 172.49332907365954 90.83434269279228 169.28015255449026 H 0.0 **** 0.06
28991 C 33.37235942348225 205.79749268580144 214.93692760371687 C 0.0 **** -0.24
28992 H 34.334155362664774 206.27673607634193 215.1196281256133 H 0.0 **** 0.06
28993 H 32.673953655469404 206.06910977282416 215.72913887325083 H 0.0 **** 0.06
28994 H 33.50249403245601 204.7157649307507 214.9221231997799 H 0.0 **** 0.06
28995 H 32.978193525776916 206.12869534819254 213.97612992484494 H 0.0 **** 0.06
28996 C 127.39355272126978 175.30626133477884 191.93821874611237 C 0.0 **** -0.24
28997 H 126.98901233803689 176.0808679439229 192.58885366469568 H 0.0 **** 0.06
28998 H 126.58344986438307 174.85442923565802 191.36563053887068 H 0.0 **** 0.06
28999 H 127.881836055253 174.54295775849812 192.54318416229663 H 0.0 **** 0.06
29000 H 128.11929424167977 175.74756787337668 191.25532130425356 H 0.0 **** 0.06
29001 C 52.78806061910137 147.1084661814686 194.2795248793659 C 0.0 **** -0.24
29002 H 53.00995277331177 146.86234182552352 195.31781568924575 H 0.0 **** 0.06
29003 H 52.55837900247326 148.17121541959278 194.19930295362877 H 0.0 **** 0.06
29004 H 51.93100324705824 146.52461574427656 193.94321330954708 H 0.0 **** 0.06
29005 H 53.65189904961116 146.87481859517385 193.65823743696714 H 0.0 **** 0.06
29006 C 184.75410269567942 18.241463258928093 57.311102684812525 C 0.0 **** -0.24
29007 H 185.00921758965913 19.211840608229835 57.73534000472401 H 0.0 **** 0.06
29008 H 184.49503248917088 18.362006904941097 56.258807569874335 H 0.0 **** 0.06
29009 H 183.90293887751508 17.82211833459735 57.84894945786485 H 0.0 **** 0.06
29010 H 185.60638364674392 17.568965232658854 57.40162174475243 H 0.0 **** 0.06
29011 C 84.59384362461482 140.05669588225828 174.1763773008294 C 0.0 **** -0.24
29012 H 85.5109754469543 140.4351848842985 173.72721986855447 H 0.0 **** 0.06
29013 H 83.81767734195613 139.9867367672149 173.41346919246246 H 0.0 **** 0.06
29014 H 84.26841205983963 140.73500268297784 174.96460588694964 H 0.0 **** 0.06
29015 H 84.77775494117525 139.06890122191822 174.59933412990978 H 0.0 **** 0.06
29016 C 102.31597052852523 94.47704929082751 126.29021758820302 C 0.0 **** -0.24
29017 H 103.0538752112595 95.01662662674038 126.88358687303854 H 0.0 **** 0.06
29018 H 101.61403520060163 95.18591990347433 125.84955966143458 H 0.0 **** 0.06
29019 H 101.7755013739354 93.77915066946109 126.92969842758596 H 0.0 **** 0.06
29020 H 102.82129125829665 93.92472195621947 125.49694610935988 H 0.0 **** 0.06
29021 C 139.1265552234728 22.034543682522155 166.99826676245704 C 0.0 **** -0.24
29022 H 139.3862186509039 21.055978365923238 167.40227414425533 H 0.0 **** 0.06
29023 H 138.30678125985588 22.461388130432226 167.5767506563721 H 0.0 **** 0.06
29024 H 138.81942523866712 21.927673835568953 165.9578936825922 H 0.0 **** 0.06
29025 H 139.99367055651942 22.692512303438605 167.0553756868767 H 0.0 **** 0.06
29026 C 69.0037429656639 168.97519045689572 82.27426713050296 C 0.0 **** -0.24
29027 H 68.00364107153344 168.55153124343627 82.18413831168728 H 0.0 **** 0.06
29028 H 69.18476953690879 169.65819013949525 81.44513811327936 H 0.0 **** 0.06
29029 H 69.74072390187773 168.17249470668312 82.25188931716183 H 0.0 **** 0.06
29030 H 69.08499165545959 169.5172239190257 83.2171428037832 H 0.0 **** 0.06
29031 C 197.22489221337872 124.09076155549684 21.857735427349155 C 0.0 **** -0.24
29032 H 196.63971718206074 124.50885097168498 21.039705763694883 H 0.0 **** 0.06
29033 H 197.6741103677969 124.90007075502444 22.434675486618318 H 0.0 **** 0.06
29034 H 198.01052623181954 123.45302365476846 21.452921036962266 H 0.0 **** 0.06
29035 H 196.57559063780465 123.50045097202423 22.504300208096566 H 0.0 **** 0.06
29036 C 81.15032402822067 158.92008330195384 15.456425348904702 C 0.0 **** -0.24
29037 H 80.39820837227882 158.5732606504455 16.164556843390102 H 0.0 **** 0.06
29038 H 80.66037396791017 159.25790487144593 14.543055945213865 H 0.0 **** 0.06
29039 H 81.83219688395832 158.10249577765973 15.221671877619997 H 0.0 **** 0.06
29040 H 81.70948378156072 159.7456235783846 15.895503633082555 H 0.0 **** 0.06
29041 C 77.23417496029202 49.75714425704615 175.89426841736298 C 0.0 **** -0.24
29042 H 77.97297070689598 49.332295241956274 175.21393738480182 H 0.0 **** 0.06
29043 H 76.23345297030403 49.4733315498753 175.5668970675299 H 0.0 **** 0.06
29044 H 77.32323682458252 50.84333500541385 175.89514765557485 H 0.0 **** 0.06
29045 H 77.40832517132827 49.37763479974399 176.90174319809353 H 0.0 **** 0.06
29046 C 190.168690971692 123.62396057193268 212.87309067591053 C 0.0 **** -0.24
29047 H 189.60113974539937 124.16744366114915 212.1170900875716 H 0.0 **** 0.06
29048 H 191.18708959937362 123.46366408910899 212.51626937030917 H 0.0 **** 0.06
29049 H 189.6932532983227 122.66150122780704 213.05986902568907 H 0.0 **** 0.06
29050 H 190.19287195395765 124.20280578521249 213.7954396372736 H 0.0 **** 0.06
29051 C 190.6526192658307 95.15818221095923 35.56157703145077 C 0.0 **** -0.24
29052 H 191.19284252891146 94.21581686652438 35.46744663604184 H 0.0 **** 0.06
29053 H 189.93372397443284 95.08417821823498 36.377057927646774 H 0.0 **** 0.06
29054 H 190.12655263252486 95.36884499034495 34.630740193683366 H 0.0 **** 0.06
29055 H 191.35857955589955 95.96109108555136 35.77023828525556 H 0.0 **** 0.06
29056 C 48.71749218237392 19.57256623414594 57.85136970176141 C 0.0 **** -0.24
29057 H 49.36947808670328 19.428901088839183 56.98926016246671 H 0.0 **** 0.06
29058 H 49.058727532580065 20.43475647115713 58.42409001996327 H 0.0 **** 0.06
29059 H 48.74704063319439 18.6829999589265 58.48177980113782 H 0.0 **** 0.06
29060 H 47.696728760804206 19.74239106525266 57.51105267991298 H 0.0 **** 0.06
29061 C 203.71593278422733 75.25915000617294 214.36495265974497 C 0.0 **** -0.24
29062 H 204.2503009355853 75.19586313703303 215.3129292362289 H 0.0 **** 0.06
29063 H 202.65721402915796 75.43445705522151 214.55677335243627 H 0.0 **** 0.06
29064 H 203.83601747117967 74.32535313793596 213.8163797836529 H 0.0 **** 0.06
29065 H 204.11970620317288 76.08210244286977 213.7743407171298 H 0.0 **** 0.06
29066 C 189.0945866933134 22.003166714179827 199.91366129977303 C 0.0 **** -0.24
29067 H 189.8251457430751 22.520370816798533 200.53611895883745 H 0.0 **** 0.06
29068 H 188.17496822239121 22.588647443641264 199.87097222139676 H 0.0 **** 0.06
29069 H 188.882504175516 21.023076199991806 200.34078742219037 H 0.0 **** 0.06
29070 H 189.49569104454673 21.882209462810124 198.90791492944135 H 0.0 **** 0.06
29071 C 24.295542922516944 68.26433810095749 87.70764806318977 C 0.0 **** -0.24
29072 H 23.987240726757193 68.76050970180137 88.62897084519949 H 0.0 **** 0.06
29073 H 24.67873379466664 69.00727837017412 87.00739406190723 H 0.0 **** 0.06
29074 H 23.439181684146547 67.75482011410008 87.26565486092022 H 0.0 **** 0.06
29075 H 25.076498139769058 67.53773412239606 87.93076179100353 H 0.0 **** 0.06
29076 C 121.87321096304048 172.4804488105673 163.3147118850313 C 0.0 **** -0.24
29077 H 121.91771651878621 171.80328735149848 164.1678670617718 H 0.0 **** 0.06
29078 H 122.3118855546471 171.99563111872345 162.44249772132795 H 0.0 **** 0.06
29079 H 122.43012741376243 173.3898375428111 163.5431420887037 H 0.0 **** 0.06
29080 H 120.83443559717865 172.7344189956694 163.10650285366648 H 0.0 **** 0.06
29081 C 214.03128092499782 193.32942520621924 140.57882484475914 C 0.0 **** -0.24
29082 H 214.1874017447542 193.85136909794818 141.5229222976041 H 0.0 **** 0.06
29083 H 213.38995702720098 192.46342396126 140.74534407316946 H 0.0 **** 0.06
29084 H 214.99211516788256 192.99989607508243 140.18315042014916 H 0.0 **** 0.06
29085 H 213.55606361604504 194.00225626677164 139.8653852886855 H 0.0 **** 0.06
29086 C 8.744684069638268 7.564376378913565 0.5114211771323696 C 0.0 **** -0.24
29087 H 7.8455753059610345 7.973125766820559 0.05094371229876771 H 0.0 **** 0.06
29088 H 8.475460199967145 7.0318083375073 1.4236946724073931 H 0.0 **** 0.06
29089 H 9.430069858146297 8.377212650818095 0.753571274053499 H 0.0 **** 0.06
29090 H 9.22701302257164 6.876140977301773 -0.18260472132859462 H 0.0 **** 0.06
29091 C 206.00929347839744 79.2871534590448 47.91445758117696 C 0.0 **** -0.24
29092 H 205.20021796002393 78.62254819498854 47.61137543681734 H 0.0 **** 0.06
29093 H 206.30845926611016 79.0521990331862 48.9364641391373 H 0.0 **** 0.06
29094 H 205.6689457209671 80.32123413541704 47.86364725444635 H 0.0 **** 0.06
29095 H 206.85956900741655 79.15041608855104 47.246047857582965 H 0.0 **** 0.06
29096 C 146.6283849049388 9.226589730777349 0.8292319043071927 C 0.0 **** -0.24
29097 H 146.70406486309406 8.247392750485432 0.35738665536214853 H 0.0 **** 0.06
29098 H 147.13309972209106 9.204421657261875 1.7952105120428712 H 0.0 **** 0.06
29099 H 145.57776359979198 9.479415439271435 0.9728500618913642 H 0.0 **** 0.06
29100 H 147.09857986399533 9.97532520750245 0.19050031002541346 H 0.0 **** 0.06
29101 C 97.30591936370003 11.819579979844036 159.10961096418384 C 0.0 **** -0.24
29102 H 98.211185363437 11.22225400105441 158.99989184313867 H 0.0 **** 0.06
29103 H 96.50631246907814 11.196009889331734 159.5090434204252 H 0.0 **** 0.06
29104 H 97.01037573803272 12.212111111573293 158.13689137238623 H 0.0 **** 0.06
29105 H 97.49870433906513 12.647343526213234 159.79214199132508 H 0.0 **** 0.06
29106 C 109.66975034411057 27.216727111160623 43.18940895291675 C 0.0 **** -0.24
29107 H 109.72613915885115 27.05256531331662 42.11303153175848 H 0.0 **** 0.06
29108 H 110.21465532634888 28.125859271638348 43.447369112057004 H 0.0 **** 0.06
29109 H 110.11246077623976 26.36753154434973 43.70952864259087 H 0.0 **** 0.06
29110 H 108.62621660243461 27.32066628838112 43.48687175157565 H 0.0 **** 0.06
29111 C 207.84305561235925 141.8824310889296 193.53176849967218 C 0.0 **** -0.24
29112 H 206.88661753858236 141.40118500452922 193.32618016581404 H 0.0 **** 0.06
29113 H 207.764023372992 142.47041922579956 194.44699143329944 H 0.0 **** 0.06
29114 H 208.1078201186036 142.5352095789915 192.70067938536528 H 0.0 **** 0.06
29115 H 208.6134313657134 141.11982850960413 193.65531880788814 H 0.0 **** 0.06
29116 C 102.74601280244666 98.78069061815042 27.989298824299325 C 0.0 **** -0.24
29117 H 102.98349534292105 99.73886365842141 28.45020725843615 H 0.0 **** 0.06
29118 H 102.0570283523514 98.93762941916641 27.1599118447579 H 0.0 **** 0.06
29119 H 102.28222689104813 98.12625208419446 28.72843412824335 H 0.0 **** 0.06
29120 H 103.66085321479572 98.3188123115006 27.619231842006144 H 0.0 **** 0.06
29121 C 95.21421720313045 111.22168913176637 97.07281742456354 C 0.0 **** -0.24
29122 H 94.29042790174317 110.732038599612 97.38086420438236 H 0.0 **** 0.06
29123 H 95.02139204335676 112.27877815926348 96.88808141488005 H 0.0 **** 0.06
29124 H 95.58608191940654 110.75492288882373 96.16016576013294 H 0.0 **** 0.06
29125 H 95.95909418573028 111.11998914658022 97.86119519385039 H 0.0 **** 0.06
29126 C 112.34123793270147 17.32682838028434 157.3661507723104 C 0.0 **** -0.24
29127 H 112.24569728400259 16.32541985390617 156.94706715831785 H 0.0 **** 0.06
29128 H 113.3939044573823 17.609616705943523 157.39409894109917 H 0.0 **** 0.06
29129 H 111.93516405246824 17.336887306462685 158.37806379875013 H 0.0 **** 0.06
29130 H 111.79028161106301 18.033701949873446 156.74714592911312 H 0.0 **** 0.06
29131 C 180.09166239217362 209.88635555054253 60.85887491778841 C 0.0 **** -0.24
29132 H 179.07017853383982 209.53235541252008 60.72174812709483 H 0.0 **** 0.06
29133 H 180.39483898067368 209.72759487277543 61.89412858383807 H 0.0 **** 0.06
29134 H 180.14213925388742 210.94944118156914 60.62433247486938 H 0.0 **** 0.06
29135 H 180.75949280029363 209.33603073530548 60.19529048535155 H 0.0 **** 0.06
29136 C 0.494201645107637 69.60829523458533 19.31825503403431 C 0.0 **** -0.24
29137 H 1.0109439285356814 70.5116799920272 19.641636422513542 H 0.0 **** 0.06
29138 H -0.5816619284644844 69.74469227963449 19.43303122252331 H 0.0 **** 0.06
29139 H 0.8201859476583593 68.76535328098464 19.92725522053503 H 0.0 **** 0.06
29140 H 0.7259132933949672 69.41191489599403 18.271967505587995 H 0.0 **** 0.06
29141 C 51.165494961632604 87.8738944293043 166.5934639074449 C 0.0 **** -0.24
29142 H 51.58530500802989 87.84912543426339 165.58776009332385 H 0.0 **** 0.06
29143 H 51.10435429269252 88.9065032806547 166.93638650383545 H 0.0 **** 0.06
29144 H 51.805602957504405 87.30483440748515 167.26761120650212 H 0.0 **** 0.06
29145 H 50.168321652207155 87.43422663313214 166.58047344785618 H 0.0 **** 0.06
29146 C 18.541406622883414 17.655490411807648 205.95505421780905 C 0.0 **** -0.24
29147 H 19.0223232556002 18.433053224850198 206.5480714110814 H 0.0 **** 0.06
29148 H 17.734850924317897 17.204235662920638 206.53385574816497 H 0.0 **** 0.06
29149 H 19.274431528048567 16.89042067257799 205.69652580008614 H 0.0 **** 0.06
29150 H 18.135082734663 18.092538228165495 205.0431549726009 H 0.0 **** 0.06
29151 C 204.07078844107951 36.9483734260715 168.78811175814616 C 0.0 **** -0.24
29152 H 205.1222536360961 36.91977099363805 168.5019073124996 H 0.0 **** 0.06
29153 H 203.47069874229027 37.2620764851425 167.9330118177321 H 0.0 **** 0.06
29154 H 203.93496846619024 37.6553284960591 169.6062685840706 H 0.0 **** 0.06
29155 H 203.75565817837594 35.955412747562036 169.10902319114444 H 0.0 **** 0.06
29156 C 54.58012280658397 153.1188401721903 97.60502591543404 C 0.0 **** -0.24
29157 H 53.57163216327416 152.9410739619138 97.23414466573645 H 0.0 **** 0.06
29158 H 54.881899788340775 154.13885106183113 97.36265716520857 H 0.0 **** 0.06
29159 H 55.268850873657925 152.41550426266485 97.13713021963942 H 0.0 **** 0.06
29160 H 54.59960570009787 152.98186106379165 98.68635763270878 H 0.0 **** 0.06
29161 C 100.77691768083817 147.78846349860657 185.00938916279563 C 0.0 **** -0.24
29162 H 101.50003530739848 147.4808812318327 185.76390898494287 H 0.0 **** 0.06
29163 H 100.09131432803188 146.9641237842638 184.8069582946083 H 0.0 **** 0.06
29164 H 101.3000402150037 148.05895561149316 184.09311467410936 H 0.0 **** 0.06
29165 H 100.21454493488064 148.64766460481525 185.37458429720508 H 0.0 **** 0.06
29166 C 124.97563769602961 211.9101891535833 158.5271515162245 C 0.0 **** -0.24
29167 H 125.14175039282254 211.65443829116697 157.48101424359777 H 0.0 **** 0.06
29168 H 124.93639705525096 212.99486680325413 158.63283370136796 H 0.0 **** 0.06
29169 H 125.79079172071654 211.51516540111305 159.1330708839216 H 0.0 **** 0.06
29170 H 124.03185329728062 211.47790410750488 158.86114822591355 H 0.0 **** 0.06
29171 C 168.37425779000966 89.51046909821741 52.1226829320739 C 0.0 **** -0.24
29172 H 168.0571663180408 90.25696948397189 51.39414719710439 H 0.0 **** 0.06
29173 H 169.40874794248168 89.22877281929289 51.92706222190961 H 0.0 **** 0.06
29174 H 167.73606476352836 88.63054127190452 52.0414375067478 H 0.0 **** 0.06
29175 H 168.29334523787554 89.92656151438871 53.12701325677912 H 0.0 **** 0.06
29176 C 34.77821047980132 27.54887708686732 47.5546092706244 C 0.0 **** -0.24
29177 H 35.674164961284305 28.14610976981622 47.3853378149426 H 0.0 **** 0.06
29178 H 34.591793965727675 27.469206858345387 48.625990943565526 H 0.0 **** 0.06
29179 H 34.9206545633906 26.552860746964313 47.135109241983756 H 0.0 **** 0.06
29180 H 33.92649022289163 28.02871460170914 47.07186843924602 H 0.0 **** 0.06
29181 C 88.7906231547654 175.59852112085423 169.47853067629035 C 0.0 **** -0.24
29182 H 89.6732174831861 175.20607962041095 168.97335936063254 H 0.0 **** 0.06
29183 H 89.01791341769602 175.76182942820623 170.53149394827798 H 0.0 **** 0.06
29184 H 87.97290343101685 174.8829900437542 169.3889769082026 H 0.0 **** 0.06
29185 H 88.49981251669345 176.5434333648325 169.01853048460814 H 0.0 **** 0.06
29186 C 52.91218796974995 189.9864024829913 150.32640617550487 C 0.0 **** -0.24
29187 H 52.3752230395545 189.0984056032155 149.9941166510336 H 0.0 **** 0.06
29188 H 52.39515855228305 190.87854384955878 149.97057682059642 H 0.0 **** 0.06
29189 H 53.925121776198324 189.96973498655012 149.92622945574283 H 0.0 **** 0.06
29190 H 52.9522892432724 189.9997429846648 151.41534329330142 H 0.0 **** 0.06
29191 C 64.3105674030702 28.283032442648235 51.16734972529912 C 0.0 **** -0.24
29192 H 64.95535998855428 28.628968379441048 50.35856544582535 H 0.0 **** 0.06
29193 H 64.81571217224257 28.429431674990454 52.12236342832932 H 0.0 **** 0.06
29194 H 64.09242364135116 27.224181523450923 51.02922962478368 H 0.0 **** 0.06
29195 H 63.38019783705852 28.850289567115325 51.15691174451209 H 0.0 **** 0.06
29196 C 206.36845155789112 57.25342697343174 107.43611174372887 C 0.0 **** -0.24
29197 H 205.61807951494202 57.85059467282784 107.95416258257603 H 0.0 **** 0.06
29198 H 207.3435888715676 57.41626890896001 107.89591047406441 H 0.0 **** 0.06
29199 H 206.40703547348346 57.5503193694088 106.38775334448155 H 0.0 **** 0.06
29200 H 206.10450051092675 56.198515226474825 107.50579800566328 H 0.0 **** 0.06
29201 C 207.83384282239513 110.30571178664611 128.6105736059469 C 0.0 **** -0.24
29202 H 207.8998745246791 111.36113381354168 128.34563341965537 H 0.0 **** 0.06
29203 H 207.8946349569842 109.70020275642197 127.70623115502995 H 0.0 **** 0.06
29204 H 206.88524895032253 110.1158812508116 129.1127968332578 H 0.0 **** 0.06
29205 H 208.65607814490437 110.04755916256686 129.27738948842654 H 0.0 **** 0.06
29206 C 178.20729774531964 118.94412621012044 63.48943951348198 C 0.0 **** -0.24
29207 H 177.2661715918286 119.28514967754806 63.05995881908922 H 0.0 **** 0.06
29208 H 178.91663436367998 119.77216488527453 63.51384592638061 H 0.0 **** 0.06
29209 H 178.61318637687324 118.13606132407922 62.88073047154698 H 0.0 **** 0.06
29210 H 178.0345241723803 118.58357540332882 64.50343189196245 H 0.0 **** 0.06
29211 C 47.64292832788462 177.26389065216853 135.58043137110684 C 0.0 **** -0.24
29212 H 47.23972021610878 176.85813098060316 134.6516641917749 H 0.0 **** 0.06
29213 H 48.658362295869466 177.61978840574272 135.41001787275468 H 0.0 **** 0.06
29214 H 47.652566020354854 176.48480521787062 136.34252134827415 H 0.0 **** 0.06
29215 H 47.01844304718031 178.09236783404276 135.91581748062958 H 0.0 **** 0.06
29216 C 160.32014612109253 66.26514583199474 208.09439826344072 C 0.0 **** -0.24
29217 H 160.49859404259325 66.32025144585893 207.02112205236807 H 0.0 **** 0.06
29218 H 159.48743125360636 66.91680761214468 208.35805144801608 H 0.0 **** 0.06
29219 H 161.2155154873983 66.58488889268342 208.6284799310671 H 0.0 **** 0.06
29220 H 160.0797861531911 65.23797236914768 208.37003554704913 H 0.0 **** 0.06
29221 C 28.585274301091133 24.982912542813963 131.90188739418136 C 0.0 **** -0.24
29222 H 28.082934713226507 24.04920021357823 131.64693371335073 H 0.0 **** 0.06
29223 H 27.92041566992222 25.8208711818624 131.69325026819217 H 0.0 **** 0.06
29224 H 29.492391164779946 25.08084451960066 131.30671142340492 H 0.0 **** 0.06
29225 H 28.843813286923805 24.978023313064483 132.96117575879248 H 0.0 **** 0.06
29226 C 13.231448522342191 197.82894428750717 160.46866817650468 C 0.0 **** -0.24
29227 H 13.08574858832759 198.71927773726375 159.8563716581008 H 0.0 **** 0.06
29228 H 12.285349013027428 197.2955484177563 160.563318634834 H 0.0 **** 0.06
29229 H 13.585215423863758 198.12197954024015 161.45755667910734 H 0.0 **** 0.06
29230 H 13.96874948406446 197.1806803599246 159.99618294739395 H 0.0 **** 0.06
29231 C 26.046122809254257 178.8959601235883 74.31949167989421 C 0.0 **** -0.24
29232 H 26.556930068526768 179.67588149614525 74.8841763110077 H 0.0 **** 0.06
29233 H 26.431618297265217 177.92095511358184 74.6185110859468 H 0.0 **** 0.06
29234 H 26.222016199748566 179.04495107083522 73.25431031342475 H 0.0 **** 0.06
29235 H 24.976308033016608 178.94185373201503 74.5215071405521 H 0.0 **** 0.06
29236 C 168.20825685235536 137.98498391290462 107.11569005011724 C 0.0 **** -0.24
29237 H 168.30821598772116 139.07031773807688 107.11350071120158 H 0.0 **** 0.06
29238 H 168.2289722576774 137.61712856630373 106.09005490770043 H 0.0 **** 0.06
29239 H 167.26282554905424 137.70964057508132 107.58238354994096 H 0.0 **** 0.06
29240 H 169.03240782244913 137.54520845034745 107.67656601015268 H 0.0 **** 0.06
29241 C 51.451086805560806 0.5106758129243758 116.37880010449521 C 0.0 **** -0.24
29242 H 50.88465037057372 1.0825096381937271 117.11409935306693 H 0.0 **** 0.06
29243 H 51.18927705685434 -0.5446331249858645 116.45830384756192 H 0.0 **** 0.06
29244 H 52.517807772040214 0.6355864555754636 116.56497434710923 H 0.0 **** 0.06
29245 H 51.21268462627637 0.8699998906820383 115.3771765408228 H 0.0 **** 0.06
29246 C 208.21874896640168 15.162044780137506 77.99024773227154 C 0.0 **** -0.24
29247 H 208.307242922032 14.272516723603928 77.36706173909232 H 0.0 **** 0.06
29248 H 208.31802385255241 16.052348265788737 77.369540610115 H 0.0 **** 0.06
29249 H 209.0042911738895 15.156079069450413 78.74546225566343 H 0.0 **** 0.06
29250 H 207.24463535349688 15.166759175928576 78.47998908394095 H 0.0 **** 0.06
29251 C 189.11408762237986 194.97093436236094 114.5968312894559 C 0.0 **** -0.24
29252 H 189.24843564412006 193.91297610720457 114.82382267416881 H 0.0 **** 0.06
29253 H 189.60499996052644 195.57188331259334 115.36121309425988 H 0.0 **** 0.06
29254 H 188.04872607595567 195.20459643195468 114.57788450492097 H 0.0 **** 0.06
29255 H 189.55113402913744 195.19164373648078 113.62356209335968 H 0.0 **** 0.06
29256 C 13.702476223074612 165.7540658637211 63.837247666924384 C 0.0 **** -0.24
29257 H 12.792029441178897 166.18919465645612 64.24991064704818 H 0.0 **** 0.06
29258 H 13.97674472220659 166.28424062110884 62.924737574596605 H 0.0 **** 0.06
29259 H 13.53134055724938 164.70267296886936 63.609513885183446 H 0.0 **** 0.06
29260 H 14.509406694903092 165.84257421678035 64.5647905350072 H 0.0 **** 0.06
29261 C 185.82459981417466 139.47428676259364 52.76328665286522 C 0.0 **** -0.24
29262 H 186.51417279731186 139.5146280104675 53.606166722945915 H 0.0 **** 0.06
29263 H 185.94498827134967 140.36920824599832 52.15229867881129 H 0.0 **** 0.06
29264 H 184.80166651376464 139.42140707888387 53.1343450280402 H 0.0 **** 0.06
29265 H 186.03846119331868 138.59134861447734 52.16171482958623 H 0.0 **** 0.06
29266 C 43.46524995240806 204.24553379336757 134.6948019233713 C 0.0 **** -0.24
29267 H 43.711937124201796 203.81328980897962 133.72434082816392 H 0.0 **** 0.06
29268 H 42.58156996399522 203.74968357949973 135.0981323123823 H 0.0 **** 0.06
29269 H 43.26445342696121 205.3095634391057 134.57772599705487 H 0.0 **** 0.06
29270 H 44.30415793407454 204.1066981875121 135.37785187386567 H 0.0 **** 0.06
29271 C 61.029411338747536 180.69721835353226 101.22597574236704 C 0.0 **** -0.24
29272 H 60.28137800040207 181.1066911351428 101.90566414235218 H 0.0 **** 0.06
29273 H 61.642116691626086 179.96838027897462 101.7560034197503 H 0.0 **** 0.06
29274 H 61.6612692244517 181.50346822418095 100.85467279482333 H 0.0 **** 0.06
29275 H 60.5302865421711 180.21136472814547 100.38801403906399 H 0.0 **** 0.06
29276 C 167.9235241318103 211.50213291079302 105.26728180042032 C 0.0 **** -0.24
29277 H 169.0048907050339 211.39967688900458 105.35535691720317 H 0.0 **** 0.06
29278 H 167.58958186531598 211.03782513733728 104.33918967310855 H 0.0 **** 0.06
29279 H 167.6583748263389 212.55909342572886 105.26100149159156 H 0.0 **** 0.06
29280 H 167.44196896226052 211.01138317581498 106.11399868306786 H 0.0 **** 0.06
29281 C 40.64067750730315 211.57654985259126 159.99282176958027 C 0.0 **** -0.24
29282 H 40.13008802615816 210.94580550926128 159.2658492298169 H 0.0 **** 0.06
29283 H 41.228355837998535 212.33175665013658 159.468098929433 H 0.0 **** 0.06
29284 H 41.300544462806 210.96369597538836 160.60635485884015 H 0.0 **** 0.06
29285 H 39.9045845622627 212.06672714287595 160.62954661378393 H 0.0 **** 0.06
29286 C 40.32934239399219 60.88505891008937 151.0202875302465 C 0.0 **** -0.24
29287 H 41.06125972856864 60.48863703680723 150.3167281183297 H 0.0 **** 0.06
29288 H 39.488670610668976 60.19613932446346 151.09741003089783 H 0.0 **** 0.06
29289 H 39.97512291777201 61.85348227858546 150.66753425569652 H 0.0 **** 0.06
29290 H 40.79443633614744 61.00399018395983 151.9988048326972 H 0.0 **** 0.06
29291 C 46.66011292871805 154.2963780638916 126.84023642464983 C 0.0 **** -0.24
29292 H 46.5283164605935 154.39203002280487 127.91759918417945 H 0.0 **** 0.06
29293 H 45.898109086426146 154.88297868585306 126.32728419746935 H 0.0 **** 0.06
29294 H 46.56650823392279 153.2488653780233 126.55454172164984 H 0.0 **** 0.06
29295 H 47.64884446122777 154.66193071193726 126.56191401338369 H 0.0 **** 0.06
29296 C 7.610845262325967 127.88669878533914 134.18578885943498 C 0.0 **** -0.24
29297 H 6.830412721325345 127.46784364489407 134.81991150680574 H 0.0 **** 0.06
29298 H 7.561739942451311 127.42776633360886 133.19748585059347 H 0.0 **** 0.06
29299 H 8.586522713511783 127.68853555154708 134.62978659012947 H 0.0 **** 0.06
29300 H 7.465474869842055 128.96311124684001 134.0936921637691 H 0.0 **** 0.06
29301 C 129.9755501462372 160.6889380398866 67.39451157843189 C 0.0 **** -0.24
29302 H 129.85682806494253 160.04273861193653 66.5248469871083 H 0.0 **** 0.06
29303 H 129.69803361006234 161.7092563012069 67.12883439896021 H 0.0 **** 0.06
29304 H 131.01445718993676 160.6677382458716 67.72342320415146 H 0.0 **** 0.06
29305 H 129.3310610423939 160.33472787041077 68.19993265575289 H 0.0 **** 0.06
29306 C 12.357093812126024 89.21636532764904 175.72479298225736 C 0.0 **** -0.24
29307 H 11.278301968140113 89.23944792836426 175.87757216984184 H 0.0 **** 0.06
29308 H 12.65923355601457 90.07901427817723 175.13047109169833 H 0.0 **** 0.06
29309 H 12.6305425565604 88.30030875446198 175.2014725542303 H 0.0 **** 0.06
29310 H 12.862062678724087 89.24638922754338 176.69099491174796 H 0.0 **** 0.06
29311 C 192.33464645074883 34.09440622076403 86.08556716008627 C 0.0 **** -0.24
29312 H 192.22258425935956 34.577552756861905 85.11536892646501 H 0.0 **** 0.06
29313 H 193.3695955155359 33.777051498761324 86.2161602827822 H 0.0 **** 0.06
29314 H 191.67811306353627 33.2259666437065 86.13658425969317 H 0.0 **** 0.06
29315 H 192.06863762985515 34.79793416238229 86.87448152752813 H 0.0 **** 0.06
29316 C 114.08179830224601 180.49265304021026 40.726329526959546 C 0.0 **** -0.24
29317 H 114.01925351848142 179.4137113612875 40.58648986395755 H 0.0 **** 0.06
29318 H 113.9131171446861 180.73261215701098 41.77638878025277 H 0.0 **** 0.06
29319 H 113.32309629684617 180.9821377963828 40.11518708236156 H 0.0 **** 0.06
29320 H 115.07004983269421 180.84038750370482 40.42696891424981 H 0.0 **** 0.06
29321 C 69.50353807460438 41.97300224252854 85.27442843191311 C 0.0 **** -0.24
29322 H 70.29312744887228 42.19214735526066 84.55628557630514 H 0.0 **** 0.06
29323 H 69.41537190374945 42.79988849392447 85.98005086105779 H 0.0 **** 0.06
29324 H 69.74755036778329 41.058503342850315 85.81384930495783 H 0.0 **** 0.06
29325 H 68.55889439093463 41.84343458494624 84.74629807965935 H 0.0 **** 0.06
29326 C 90.29718170320183 164.33194549756308 49.58444405640752 C 0.0 **** -0.24
29327 H 89.33140321156327 164.82758486397285 49.48322810324575 H 0.0 **** 0.06
29328 H 91.09496708630655 165.04773095595579 49.384072373681704 H 0.0 **** 0.06
29329 H 90.35945429938772 163.5081920063427 48.87283218283255 H 0.0 **** 0.06
29330 H 90.40227479834374 163.94491845069524 50.59808089781352 H 0.0 **** 0.06
29331 C 18.08944020925776 110.46966872200723 74.56946762313008 C 0.0 **** -0.24
29332 H 17.79840177336638 111.2290461587102 75.29514570038627 H 0.0 **** 0.06
29333 H 18.24608764640226 109.519438007852 75.08183598583615 H 0.0 **** 0.06
29334 H 19.012847749976657 110.77382188475458 74.07630587580668 H 0.0 **** 0.06
29335 H 17.299888265689702 110.35580617193851 73.82613109208806 H 0.0 **** 0.06
29336 C 216.72321365291938 112.44828851692336 93.79053779834364 C 0.0 **** -0.24
29337 H 217.08587135458788 113.19368446149593 94.49900193298747 H 0.0 **** 0.06
29338 H 216.25041822040345 111.63103546215575 94.33535342113 H 0.0 **** 0.06
29339 H 217.56021042369898 112.06159447931685 93.21003435621982 H 0.0 **** 0.06
29340 H 215.99684949721228 112.90729081211896 93.12011767855658 H 0.0 **** 0.06
29341 C 51.67308017761029 67.02624651550713 119.77197847715824 C 0.0 **** -0.24
29342 H 52.45282447117785 66.32595611446271 119.47056788167806 H 0.0 **** 0.06
29343 H 52.13200589862831 67.9152100278472 120.2052107482515 H 0.0 **** 0.06
29344 H 51.02664082649453 66.55322308000754 120.5102440846453 H 0.0 **** 0.06
29345 H 51.08318058860044 67.3096318995822 118.8999845866265 H 0.0 **** 0.06
29346 C 68.5345731398605 39.57090910272976 28.92533078719272 C 0.0 **** -0.24
29347 H 69.46987128598029 39.06630069777286 29.166328425828013 H 0.0 **** 0.06
29348 H 67.69998902173181 39.00888855480602 29.34482857595647 H 0.0 **** 0.06
29349 H 68.42311255732382 39.63249466392398 27.84280878127069 H 0.0 **** 0.06
29350 H 68.54531969440616 40.575952494416214 29.347357365715695 H 0.0 **** 0.06
29351 C 110.7272359166246 191.4615389198439 183.38185673135723 C 0.0 **** -0.24
29352 H 109.84248137505811 191.93491114978144 182.95722718202802 H 0.0 **** 0.06
29353 H 111.09747244776749 190.69967235887444 182.6954061493173 H 0.0 **** 0.06
29354 H 110.46956417250867 190.99839223321828 184.33483604487702 H 0.0 **** 0.06
29355 H 111.50048551934815 192.21398572350535 183.54145002987218 H 0.0 **** 0.06
29356 C 184.9048632863969 177.68371622408165 160.64662004160493 C 0.0 **** -0.24
29357 H 185.12758561192413 177.2571857509539 161.62445829564476 H 0.0 **** 0.06
29358 H 185.70998678971117 178.35842185742797 160.35322165430983 H 0.0 **** 0.06
29359 H 183.9676750573093 178.2370542702213 160.69703183299552 H 0.0 **** 0.06
29360 H 184.815644446581 176.8827853525761 159.9133780233997 H 0.0 **** 0.06
29361 C 206.68075180353475 116.754084104841 97.68119182323294 C 0.0 **** -0.24
29362 H 206.9032593536484 117.40060420259802 96.83265586054397 H 0.0 **** 0.06
29363 H 207.40096169084558 116.9409044830159 98.47827526646692 H 0.0 **** 0.06
29364 H 206.74273243298632 115.71179115479664 97.37066820134093 H 0.0 **** 0.06
29365 H 205.67395160301604 116.96509156991117 98.04376646174155 H 0.0 **** 0.06
29366 C 100.27728797129318 134.66852126272454 214.12794398529965 C 0.0 **** -0.24
29367 H 99.58051136740367 134.8091230950444 213.30201443974613 H 0.0 **** 0.06
29368 H 100.9766008239714 133.86786245601252 213.8806441686322 H 0.0 **** 0.06
29369 H 99.72489667046462 134.40284111273485 215.02879193632577 H 0.0 **** 0.06
29370 H 100.82851187013124 135.59323886778617 214.2985684273733 H 0.0 **** 0.06
29371 C 38.867343024845624 105.63996051126391 62.20394585264198 C 0.0 **** -0.24
29372 H 38.35528566256491 104.8624147677768 61.63775772276648 H 0.0 **** 0.06
29373 H 39.677529892586904 106.0526466691688 61.60316177872251 H 0.0 **** 0.06
29374 H 39.27472213415635 105.21256726672605 63.12008307465655 H 0.0 **** 0.06
29375 H 38.16086143305246 106.43135197946096 62.455338871384114 H 0.0 **** 0.06
29376 C 10.100311868099851 210.23541644262642 36.465401748282474 C 0.0 **** -0.24
29377 H 10.189339944227186 209.45095724344299 35.71393857460943 H 0.0 **** 0.06
29378 H 9.255933504597778 210.87916586592968 36.21937127699967 H 0.0 **** 0.06
29379 H 11.016137051085508 210.8270465255303 36.481656948318644 H 0.0 **** 0.06
29380 H 9.941647139422003 209.78450189241883 37.44386108381781 H 0.0 **** 0.06
29381 C 54.86612157719564 185.5180656669851 167.22196606264646 C 0.0 **** -0.24
29382 H 55.75488434603865 184.90476197633535 167.07600563109511 H 0.0 **** 0.06
29383 H 54.250924397434844 185.08201453813288 168.01013927260678 H 0.0 **** 0.06
29384 H 54.29516418669695 185.5560324630582 166.29493300194946 H 0.0 **** 0.06
29385 H 55.1636328002123 186.5259225380383 167.50801798557427 H 0.0 **** 0.06
29386 C 141.15000073926888 157.73139741037534 157.615951714647 C 0.0 **** -0.24
29387 H 140.32599656490873 158.37773896050015 157.3134358299655 H 0.0 **** 0.06
29388 H 142.07962661263048 158.30195372249187 157.60906727730253 H 0.0 **** 0.06
29389 H 141.2314912063615 156.89663383470634 156.92013981112729 H 0.0 **** 0.06
29390 H 140.96375900841906 157.35061382264445 158.61997313251675 H 0.0 **** 0.06
29391 C 19.5393931061204 96.2868587596986 22.733399509288446 C 0.0 **** -0.24
29392 H 20.251591053601558 97.09757262692442 22.57814728241341 H 0.0 **** 0.06
29393 H 18.691966972230972 96.65397155483875 23.313172133497062 H 0.0 **** 0.06
29394 H 20.02549372106452 95.47459662436701 23.27246678507258 H 0.0 **** 0.06
29395 H 19.18799932569638 95.92254468670474 21.767135138682917 H 0.0 **** 0.06
29396 C 112.91668827888695 36.66042550545909 80.92516459117297 C 0.0 **** -0.24
29397 H 112.94461903174364 35.63113444319332 81.28291439282975 H 0.0 **** 0.06
29398 H 113.93335336422028 37.00859766427335 80.74070483528544 H 0.0 **** 0.06
29399 H 112.44657405244472 37.29372090260357 81.67723552105383 H 0.0 **** 0.06
29400 H 112.34314086584574 36.70720763474915 80.00001059519042 H 0.0 **** 0.06
29401 C 30.915027189817422 23.36449021612765 190.60000566424014 C 0.0 **** -0.24
29402 H 30.28942601987174 24.21937060867333 190.34317920884587 H 0.0 **** 0.06
29403 H 31.528659643313105 23.61153875335637 191.46643302521153 H 0.0 **** 0.06
29404 H 31.559446577223483 23.119483587372542 189.7562328705723 H 0.0 **** 0.06
29405 H 30.281893121778765 22.50871805440636 190.83463600834892 H 0.0 **** 0.06
29406 C 57.88262572677144 193.4651731480684 8.656437734689916 C 0.0 **** -0.24
29407 H 57.080958606969205 193.00415913706337 9.231926238780432 H 0.0 **** 0.06
29408 H 57.74299869995676 194.54601171254677 8.639632209534113 H 0.0 **** 0.06
29409 H 57.865129354513044 193.08066055307225 7.636275447989021 H 0.0 **** 0.06
29410 H 58.84216377099369 193.23043076927547 9.116860246006127 H 0.0 **** 0.06
29411 C 192.7596120764872 7.794961012856689 206.63780490056845 C 0.0 **** -0.24
29412 H 193.65175827333542 8.366137085449097 206.89239314699716 H 0.0 **** 0.06
29413 H 193.04091313595873 6.931565003776896 206.0352584921027 H 0.0 **** 0.06
29414 H 192.07392503478596 8.425510669910409 206.07181060059156 H 0.0 **** 0.06
29415 H 192.2718518618687 7.456631292290254 207.5517573625823 H 0.0 **** 0.06
29416 C 71.24972527323588 142.30045261770925 159.46708326032342 C 0.0 **** -0.24
29417 H 72.0848818890464 141.68089731002044 159.79594312084322 H 0.0 **** 0.06
29418 H 71.44171772899777 143.3400033144315 159.73575296420512 H 0.0 **** 0.06
29419 H 70.33417217946946 141.96165546019904 159.95255433608304 H 0.0 **** 0.06
29420 H 71.14060304413728 142.21775640724428 158.3857064467726 H 0.0 **** 0.06
29421 C 192.61991524344978 85.43439319341684 160.66167804940432 C 0.0 **** -0.24
29422 H 193.08450116621805 85.642416252803 161.6252565128546 H 0.0 **** 0.06
29423 H 192.1370156531498 86.33774608116562 160.28801818350152 H 0.0 **** 0.06
29424 H 191.8752128731288 84.6462871484253 160.7809986642353 H 0.0 **** 0.06
29425 H 193.3812921749971 85.1096942206396 159.95295957917529 H 0.0 **** 0.06
29426 C 30.382524765289475 52.48648872153768 142.18862197412653 C 0.0 **** -0.24
29427 H 31.401605797576735 52.86882012615462 142.12874137209002 H 0.0 **** 0.06
29428 H 30.012060314164046 52.28151481619193 141.18478189435262 H 0.0 **** 0.06
29429 H 29.743643446548276 53.22816861225931 142.668249684221 H 0.0 **** 0.06
29430 H 30.3733953441336 51.56680130638921 142.77476689818167 H 0.0 **** 0.06
29431 C 129.89026644731865 139.44197355012557 190.30543071455713 C 0.0 **** -0.24
29432 H 129.71239774461617 138.80541835147005 189.4395356198148 H 0.0 **** 0.06
29433 H 130.61351842239287 138.96275070534904 190.9666985988592 H 0.0 **** 0.06
29434 H 128.95392471044238 139.5961346054957 190.842029878901 H 0.0 **** 0.06
29435 H 130.28238839244227 140.40428760289035 189.97523653971547 H 0.0 **** 0.06
29436 C 30.9566967493017 144.4746121552186 107.51366889108611 C 0.0 **** -0.24
29437 H 30.95248138181347 145.31382435986376 108.20976245910107 H 0.0 **** 0.06
29438 H 30.120499583727792 143.812381908507 107.73714043447588 H 0.0 **** 0.06
29439 H 31.892338207084805 143.92415928516567 107.61490547856123 H 0.0 **** 0.06
29440 H 30.86343005385126 144.84810545970328 106.49433322650508 H 0.0 **** 0.06
29441 C 203.78723228218993 41.16463086874013 135.9338504015675 C 0.0 **** -0.24
29442 H 203.124709271778 41.22869306894367 136.79691843415173 H 0.0 **** 0.06
29443 H 203.8083511890938 42.125341561014 135.41861151775026 H 0.0 **** 0.06
29444 H 203.4231304994018 40.39455479679563 135.25303993705512 H 0.0 **** 0.06
29445 H 204.7935860296398 40.907994966880395 136.26610978946667 H 0.0 **** 0.06
29446 C 178.83425622999567 17.21646123250798 189.08629202697225 C 0.0 **** -0.24
29447 H 179.60997275679867 17.890406286836708 188.7248185908729 H 0.0 **** 0.06
29448 H 177.85809823490143 17.686246971432922 188.9596425478939 H 0.0 **** 0.06
29449 H 179.000925427242 17.003871263294684 190.14164978501938 H 0.0 **** 0.06
29450 H 178.86603665304392 16.286698112699753 188.5186903404022 H 0.0 **** 0.06
29451 C 157.03974661342244 114.76008862173553 142.23974662018526 C 0.0 **** -0.24
29452 H 157.5119420604613 115.73585231518372 142.3426143493075 H 0.0 **** 0.06
29453 H 157.78767419734885 113.97865405823323 142.3739944807828 H 0.0 **** 0.06
29454 H 156.5967004672027 114.67337323134926 141.24822472426155 H 0.0 **** 0.06
29455 H 156.2617510486936 114.65143286669438 142.99617043289902 H 0.0 **** 0.06
29456 C 213.8688056017795 207.05392834887124 205.71836219966 C 0.0 **** -0.24
29457 H 213.26331050700554 206.29177020614827 206.2079138073015 H 0.0 **** 0.06
29458 H 214.50918315218667 207.538310061872 206.45617864181213 H 0.0 **** 0.06
29459 H 213.21621704502948 207.79735232058053 205.26028129479045 H 0.0 **** 0.06
29460 H 214.486678682922 206.59007474306964 204.9503994396414 H 0.0 **** 0.06
29461 C 56.43646265124896 13.96100403125439 9.272166541124761 C 0.0 **** -0.24
29462 H 55.43536216970186 13.712159526022916 9.625110424437082 H 0.0 **** 0.06
29463 H 57.09363952078924 14.119386880068973 10.127696543806564 H 0.0 **** 0.06
29464 H 56.39468135301102 14.868738416579902 8.6711126943909 H 0.0 **** 0.06
29465 H 56.82140711044997 13.141413311912203 8.664967264751965 H 0.0 **** 0.06
29466 C 164.1391951582471 12.659199145240493 35.988628843748884 C 0.0 **** -0.24
29467 H 163.29573052977094 13.178376771851276 36.44465533789217 H 0.0 **** 0.06
29468 H 163.8467267220801 12.28322978813739 35.00854191793245 H 0.0 **** 0.06
29469 H 164.43923843015767 11.826543328220708 36.623704774350756 H 0.0 **** 0.06
29470 H 164.97355391497194 13.35199207214967 35.87829496254042 H 0.0 **** 0.06
29471 C 115.19308017562467 118.06887144348595 159.90458903117266 C 0.0 **** -0.24
29472 H 114.77949388733968 117.11432689734026 160.2301289359891 H 0.0 **** 0.06
29473 H 115.40436664955975 118.02730325719018 158.83612646915128 H 0.0 **** 0.06
29474 H 116.11542197935192 118.26984726826875 160.4492921123141 H 0.0 **** 0.06
29475 H 114.47339549713952 118.86309359145424 160.1026200320941 H 0.0 **** 0.06
29476 C 216.18718521692426 61.032525428761645 70.795888783227 C 0.0 **** -0.24
29477 H 215.60500320360404 60.51773499304849 71.5609025515849 H 0.0 **** 0.06
29478 H 216.45861453263217 62.02553996493907 71.15319730905243 H 0.0 **** 0.06
29479 H 215.59188172596282 61.123565817202035 69.88691433273097 H 0.0 **** 0.06
29480 H 217.09077978170518 60.4618833501096 70.58233408117731 H 0.0 **** 0.06
29481 C 11.60189753109816 214.5942081995147 130.6415910358234 C 0.0 **** -0.24
29482 H 11.06964581783447 214.3140600814575 129.73153262331414 H 0.0 **** 0.06
29483 H 11.204898280747742 214.02690115343944 131.4832295819037 H 0.0 **** 0.06
29484 H 11.469543309020764 215.6598716579232 130.825495551534 H 0.0 **** 0.06
29485 H 12.662825211153887 214.3746131046694 130.5226978666903 H 0.0 **** 0.06
29486 C 123.52715345587303 69.42150599872055 46.047130316510106 C 0.0 **** -0.24
29487 H 122.55357921973278 69.26655253123597 46.512026825775536 H 0.0 **** 0.06
29488 H 123.43757746050055 70.16365838568352 45.2538257640344 H 0.0 **** 0.06
29489 H 123.88164634223425 68.48031100658635 45.62542788820326 H 0.0 **** 0.06
29490 H 124.23528757742271 69.7738563867314 46.79710658684213 H 0.0 **** 0.06
29491 C 163.0544026165646 43.96199801093945 211.387922161127 C 0.0 **** -0.24
29492 H 163.7687558150944 44.78107702811826 211.4635937405876 H 0.0 **** 0.06
29493 H 163.1033471492368 43.35197743664965 212.28998672127523 H 0.0 **** 0.06
29494 H 163.29747467330026 43.34797926946024 210.51982704885518 H 0.0 **** 0.06
29495 H 162.04902726476163 44.36622265500202 211.27554799242333 H 0.0 **** 0.06
29496 C 114.0848879068282 169.143887641515 9.12238314212044 C 0.0 **** -0.24
29497 H 114.2417503926924 169.98757932617218 8.450262885376617 H 0.0 **** 0.06
29498 H 114.36926476218558 169.42985287861 10.135641176835122 H 0.0 **** 0.06
29499 H 114.6962879949203 168.3024395436684 8.79696470154795 H 0.0 **** 0.06
29500 H 113.03339138759189 168.8578295079588 9.106925318141862 H 0.0 **** 0.06
29501 C 96.5780828227495 90.31162664256725 13.739808800835803 C 0.0 **** -0.24
29502 H 96.2437194928631 91.13827859335144 13.114337919719915 H 0.0 **** 0.06
29503 H 95.72994437061685 89.67018074711798 13.978258917673017 H 0.0 **** 0.06
29504 H 97.00737844583394 90.7052891645305 14.662054566491719 H 0.0 **** 0.06
29505 H 97.33250396689708 89.73373769640172 13.206185117203404 H 0.0 **** 0.06
29506 C 120.55683118896519 165.6424792904873 116.97129335751787 C 0.0 **** -0.24
29507 H 119.54581396991449 165.39904310204457 117.29768444039907 H 0.0 **** 0.06
29508 H 121.09465351738379 166.12560927743698 117.78737037881577 H 0.0 **** 0.06
29509 H 120.51084009069035 166.31626761520334 116.11641077543605 H 0.0 **** 0.06
29510 H 121.07603306164964 164.72788158694993 116.68564569842177 H 0.0 **** 0.06
29511 C 173.98722967949902 135.56592297621182 184.98455327911998 C 0.0 **** -0.24
29512 H 173.15803306966765 135.3784444869279 185.66700616465258 H 0.0 **** 0.06
29513 H 174.82569396077022 134.92057813724034 185.24816822457282 H 0.0 **** 0.06
29514 H 174.29210688132287 136.61017966064082 185.0620195806834 H 0.0 **** 0.06
29515 H 173.6718500043466 135.35493419106024 183.96308741217177 H 0.0 **** 0.06
29516 C 73.44239802154641 68.26571906184009 127.52310980882402 C 0.0 **** -0.24
29517 H 74.409399135738 67.76407700258052 127.4733680259011 H 0.0 **** 0.06
29518 H 72.64726183626408 67.53944787975752 127.35434442395984 H 0.0 **** 0.06
29519 H 73.3963080178699 69.04060113622633 126.75814274228298 H 0.0 **** 0.06
29520 H 73.31888271929557 68.71830853401254 128.50742017196444 H 0.0 **** 0.06
29521 C 27.235854134042015 133.07957156842463 65.3626122447515 C 0.0 **** -0.24
29522 H 28.301783837586896 132.90493862405435 65.21727699850636 H 0.0 **** 0.06
29523 H 27.092017332175345 133.77651107577088 66.18856590134757 H 0.0 **** 0.06
29524 H 26.740939482674236 132.13631837877676 65.59168653065967 H 0.0 **** 0.06
29525 H 26.810610271088365 133.50157375903711 64.45184995416983 H 0.0 **** 0.06
29526 C 28.979937360310004 116.80788636435301 34.7617853976365 C 0.0 **** -0.24
29527 H 28.8941442663332 117.00132658595152 35.830801091347155 H 0.0 **** 0.06
29528 H 29.321142684522442 117.7109750508065 34.255030131791656 H 0.0 **** 0.06
29529 H 28.007814837720048 116.51367963466595 34.3670318970739 H 0.0 **** 0.06
29530 H 29.69826056665657 116.00472524449185 34.59558030379573 H 0.0 **** 0.06
29531 C 89.85459577696889 164.7900467367089 179.15883668588128 C 0.0 **** -0.24
29532 H 90.36993537223623 164.16604041552824 178.42831334049004 H 0.0 **** 0.06
29533 H 90.58927581510011 165.30752176703734 179.77716426983403 H 0.0 **** 0.06
29534 H 89.22354893567092 164.16510943456893 179.78911785636484 H 0.0 **** 0.06
29535 H 89.23721260265967 165.52236780991413 178.6374730715271 H 0.0 **** 0.06
29536 C 43.6078531451663 93.20791967705826 70.25264006879883 C 0.0 **** -0.24
29537 H 43.976073610390074 93.8113144795473 69.42276384763761 H 0.0 **** 0.06
29538 H 43.66031289654319 92.15236184685243 69.9842992541798 H 0.0 **** 0.06
29539 H 42.57377360615749 93.47817598687878 70.4667595971535 H 0.0 **** 0.06
29540 H 44.221462404611884 93.38861032021047 71.13487285817553 H 0.0 **** 0.06
29541 C 187.13145327052797 53.18069443506157 149.51723872205167 C 0.0 **** -0.24
29542 H 187.35060760665698 54.20456358812966 149.2133892848608 H 0.0 **** 0.06
29543 H 186.3041923870662 52.79403022105062 148.9221359145368 H 0.0 **** 0.06
29544 H 186.8590619977692 53.165656845187314 150.57273008088055 H 0.0 **** 0.06
29545 H 188.01353854832877 52.55919991686355 149.36053429811943 H 0.0 **** 0.06
29546 C 146.13861608871372 93.01627679366412 6.490715079559948 C 0.0 **** -0.24
29547 H 145.541023631175 92.94505825974029 7.400203030576449 H 0.0 **** 0.06
29548 H 146.26136290339645 92.0235573133139 6.058181402592936 H 0.0 **** 0.06
29549 H 147.11661366923784 93.43201776136267 6.731941750736667 H 0.0 **** 0.06
29550 H 145.63364840523536 93.6656695567393 5.774601374461213 H 0.0 **** 0.06
29551 C 110.11015183925592 192.15890375395765 101.79131926367764 C 0.0 **** -0.24
29552 H 109.79186127984399 193.13076982751073 102.16760317244275 H 0.0 **** 0.06
29553 H 109.8435228776686 191.38497222130115 102.51207452087864 H 0.0 **** 0.06
29554 H 111.18960262701849 192.16236010335587 101.6442472881542 H 0.0 **** 0.06
29555 H 109.6137287985873 191.95706357928367 100.84245634665324 H 0.0 **** 0.06
29556 C 106.87767889233157 212.55710697142754 176.7970345982885 C 0.0 **** -0.24
29557 H 106.89124155127263 211.910434735936 177.67424677721093 H 0.0 **** 0.06
29558 H 106.46397895549262 213.52837607450778 177.0689607542558 H 0.0 **** 0.06
29559 H 106.2614204508734 212.1032462678979 176.02093078322173 H 0.0 **** 0.06
29560 H 107.8945045825003 212.686168665191 176.4253321060698 H 0.0 **** 0.06
29561 C 1.0958943118470472 101.35554377919944 10.550484968627359 C 0.0 **** -0.24
29562 H 0.4800379843948406 101.35353753031738 11.450161635941939 H 0.0 **** 0.06
29563 H 0.5079960928681544 101.72446482031053 9.70913004252509 H 0.0 **** 0.06
29564 H 1.4336626593550363 100.34048497167463 10.33989221269384 H 0.0 **** 0.06
29565 H 1.959234773400624 102.00274442500053 10.703088042618617 H 0.0 **** 0.06
29566 C 18.51494300061347 169.56381179247455 25.4759285475954 C 0.0 **** -0.24
29567 H 17.707538315406396 169.12448173254802 26.062321692786583 H 0.0 **** 0.06
29568 H 19.451232461075563 169.48549209358072 26.029917928653532 H 0.0 **** 0.06
29569 H 18.29381457422224 170.61330204905278 25.282479455899676 H 0.0 **** 0.06
29570 H 18.607207072519998 169.0306053758598 24.530059960221223 H 0.0 **** 0.06
29571 C 74.85970286177037 171.57259998550677 111.2779652610983 C 0.0 **** -0.24
29572 H 74.15165660929254 170.7889295013274 111.00953984615802 H 0.0 **** 0.06
29573 H 74.91345394856798 172.30510480711746 110.47136518872139 H 0.0 **** 0.06
29574 H 75.8453825092436 171.13414708241478 111.43626824247968 H 0.0 **** 0.06
29575 H 74.52865836586189 172.06289051493502 112.19349072560141 H 0.0 **** 0.06
29576 C 21.949355534395323 32.80424364010652 48.7611352464817 C 0.0 **** -0.24
29577 H 21.747478025528935 32.95037081804193 47.69939588208797 H 0.0 **** 0.06
29578 H 21.30892729050379 32.011278437488286 49.14692013851925 H 0.0 **** 0.06
29579 H 21.745525489756943 33.73082573495755 49.298968949853304 H 0.0 **** 0.06
29580 H 22.994319961094305 32.52774450794104 48.896998017198314 H 0.0 **** 0.06
29581 C 158.74979532960367 191.2320419099027 114.84871467647751 C 0.0 **** -0.24
29582 H 159.79099867304615 191.43744003845646 115.09349888963835 H 0.0 **** 0.06
29583 H 158.33409250425575 190.5388929423949 115.58137615330766 H 0.0 **** 0.06
29584 H 158.68994588606444 190.78957486589678 113.85457631165595 H 0.0 **** 0.06
29585 H 158.18189797786488 192.16248398154357 114.86635818249367 H 0.0 **** 0.06
29586 C 155.06822277602328 69.16074937017362 145.37643781146204 C 0.0 **** -0.24
29587 H 154.00081907581034 69.11320953897888 145.15811130873772 H 0.0 **** 0.06
29588 H 155.33330204738053 70.17539854933074 145.67453203969546 H 0.0 **** 0.06
29589 H 155.6339892652561 68.88295354659277 144.4868520058302 H 0.0 **** 0.06
29590 H 155.3028183378156 68.47036591090847 146.18632220402526 H 0.0 **** 0.06
29591 C 119.85859504393547 157.01709364557894 157.12383073478662 C 0.0 **** -0.24
29592 H 119.76495169971544 157.9893596617593 156.6393104907744 H 0.0 **** 0.06
29593 H 120.20475716120963 157.15491617937386 158.1483061512758 H 0.0 **** 0.06
29594 H 120.5764785839835 156.40652449324415 156.5772489481539 H 0.0 **** 0.06
29595 H 118.88875060260052 156.52020955582537 157.1313199421386 H 0.0 **** 0.06
29596 C 40.05769562549372 129.01394431081883 194.05369430745606 C 0.0 **** -0.24
29597 H 40.874571624608805 128.58386398158387 193.47334900912142 H 0.0 **** 0.06
29598 H 40.03988986543919 130.0949047139003 193.9094246847879 H 0.0 **** 0.06
29599 H 40.206979770749356 128.79124833766514 195.11045913140572 H 0.0 **** 0.06
29600 H 39.11196441674349 128.58675317729427 193.72190923562633 H 0.0 **** 0.06
29601 C 50.90644841029976 164.11212234853514 165.11191139175628 C 0.0 **** -0.24
29602 H 50.13296617482901 163.7441179116483 165.7865069105717 H 0.0 **** 0.06
29603 H 50.44588671703545 164.69937602045894 164.31709430675812 H 0.0 **** 0.06
29604 H 51.440806177229646 163.26729970281173 164.67776095137486 H 0.0 **** 0.06
29605 H 51.604753840267406 164.73693105095094 165.66815660480842 H 0.0 **** 0.06
29606 C 45.59103688806637 70.56183151486239 99.43361847843614 C 0.0 **** -0.24
29607 H 46.527475703861825 70.892926561951 98.98426387814278 H 0.0 **** 0.06
29608 H 45.34261600349747 69.56715520854597 99.06303886235007 H 0.0 **** 0.06
29609 H 44.795487827287744 71.25796435246868 99.16819071350481 H 0.0 **** 0.06
29610 H 45.70040293211791 70.52906288363154 100.5173723308556 H 0.0 **** 0.06
29611 C 170.57221674811694 158.96825716216767 10.427312929269021 C 0.0 **** -0.24
29612 H 170.93636821093816 158.1327101829056 9.828498170819103 H 0.0 **** 0.06
29613 H 171.41180385107015 159.4469285096024 10.930241706700286 H 0.0 **** 0.06
29614 H 169.86386264234255 158.60018724389562 11.16979332618294 H 0.0 **** 0.06
29615 H 170.07584696064623 159.69103090254004 9.778413614520787 H 0.0 **** 0.06
29616 C 119.60675822591055 111.4664178038873 214.64388992699662 C 0.0 **** -0.24
29617 H 119.07584750713279 112.1640107094904 215.291433808544 H 0.0 **** 0.06
29618 H 120.12510544362807 112.0201125864654 213.8605589629176 H 0.0 **** 0.06
29619 H 118.89405272435427 110.77733771855476 214.19015801270905 H 0.0 **** 0.06
29620 H 120.3317882399116 110.90480548361576 215.2321485441138 H 0.0 **** 0.06
29621 C 54.36600205996871 126.1933072407734 110.17689384128904 C 0.0 **** -0.24
29622 H 54.08304320687313 127.10262259103253 110.70687970228808 H 0.0 **** 0.06
29623 H 53.53181786463756 125.85859597475282 109.5593897910796 H 0.0 **** 0.06
29624 H 54.61990715063996 125.41722217873202 110.89749240018283 H 0.0 **** 0.06
29625 H 55.22845689163353 126.39760712408328 109.54170617342957 H 0.0 **** 0.06
29626 C 66.19637207247882 42.193159888358934 206.8866891542779 C 0.0 **** -0.24
29627 H 66.2731268626423 42.34345130412578 207.9631487748149 H 0.0 **** 0.06
29628 H 66.95987939968074 41.48525539283122 206.5626290674569 H 0.0 **** 0.06
29629 H 66.34179805026275 43.1445819034592 206.37628877243088 H 0.0 **** 0.06
29630 H 65.2087402713808 41.79824828777856 206.64476887760534 H 0.0 **** 0.06
29631 C 88.62403300150321 37.13627843938417 209.01273258569836 C 0.0 **** -0.24
29632 H 89.56397752564307 37.32947016505828 208.49620051774525 H 0.0 **** 0.06
29633 H 87.80488434737937 37.15061277843658 208.29371370732798 H 0.0 **** 0.06
29634 H 88.45929019131403 37.90443938384912 209.76791117149332 H 0.0 **** 0.06
29635 H 88.66897618426044 36.15795892167148 209.49338339763992 H 0.0 **** 0.06
29636 C 147.86531390156472 20.792470978458795 47.02000217055871 C 0.0 **** -0.24
29637 H 148.37854767827196 20.10202069004005 46.35114671824698 H 0.0 **** 0.06
29638 H 147.34481832998057 21.5487609503692 46.43177518329429 H 0.0 **** 0.06
29639 H 148.5941077176854 21.276172600058814 47.67138414267788 H 0.0 **** 0.06
29640 H 147.1450677599184 20.24234721332985 47.62578800699799 H 0.0 **** 0.06
29641 C 80.07302440918903 215.15624368668605 11.652059454186173 C 0.0 **** -0.24
29642 H 79.2895059312225 215.61629225185902 11.050864618859748 H 0.0 **** 0.06
29643 H 80.71559645342376 215.9334510813602 12.066718330465221 H 0.0 **** 0.06
29644 H 80.66697377849914 214.49031563840026 11.025911611290468 H 0.0 **** 0.06
29645 H 79.62147504012864 214.58608715255224 12.463512360502023 H 0.0 **** 0.06
29646 C 164.19832889294213 35.068167915222546 204.29863413819328 C 0.0 **** -0.24
29647 H 164.95763262478934 34.72983659417008 205.00299759573076 H 0.0 **** 0.06
29648 H 163.4221336997254 34.30834943840662 204.20804142649885 H 0.0 **** 0.06
29649 H 164.65691969635958 35.237768259186026 203.3244307016969 H 0.0 **** 0.06
29650 H 163.7569858798489 35.99762174347677 204.65930167701322 H 0.0 **** 0.06
29651 C 93.63410418231469 203.23791088633024 3.071332958302378 C 0.0 **** -0.24
29652 H 94.2978972098545 204.00219933109932 2.667032168807168 H 0.0 **** 0.06
29653 H 93.88005294864361 203.0594546108222 4.117632476321319 H 0.0 **** 0.06
29654 H 93.75817042180601 202.3143439861024 2.5056909431062024 H 0.0 **** 0.06
29655 H 92.60122275149952 203.5766383242908 2.9931997244168826 H 0.0 **** 0.06
29656 C 3.0629672525175238 132.69635769562979 95.25365435803865 C 0.0 **** -0.24
29657 H 2.7757437446082633 131.6661481893875 95.46487266257198 H 0.0 **** 0.06
29658 H 3.7602271634352746 133.04320181340836 96.01646620608217 H 0.0 **** 0.06
29659 H 2.175886155088051 133.32891817410325 95.25673438501146 H 0.0 **** 0.06
29660 H 3.5410923970471515 132.7459360305088 94.27501832600483 H 0.0 **** 0.06
29661 C 144.18388529339126 58.53611368196286 104.10188960177153 C 0.0 **** -0.24
29662 H 144.0717540045638 59.37550684113229 103.4151059041407 H 0.0 **** 0.06
29663 H 144.6429441909777 57.697029018927836 103.57823990130377 H 0.0 **** 0.06
29664 H 143.20338877916288 58.23969747366418 104.47439886602307 H 0.0 **** 0.06
29665 H 144.81572350086975 58.83259332553163 104.93812067531628 H 0.0 **** 0.06
29666 C 192.82854990429612 57.61217369877957 14.71527865822641 C 0.0 **** -0.24
29667 H 193.11266291105187 58.32392369174475 15.490670746786819 H 0.0 **** 0.06
29668 H 193.55367317586825 57.652101304812405 13.903406662539624 H 0.0 **** 0.06
29669 H 191.83933963174218 57.86760783600981 14.333360341018874 H 0.0 **** 0.06
29670 H 192.80700153528622 56.607200756702326 15.136343004658315 H 0.0 **** 0.06
29671 C 207.65279022315457 87.35242400651045 76.86909048095805 C 0.0 **** -0.24
29672 H 207.61564352226338 86.46895175353545 77.50687418029099 H 0.0 **** 0.06
29673 H 208.0577861145585 88.19159992788967 77.43545366203779 H 0.0 **** 0.06
29674 H 206.6467800836035 87.59587830798056 76.52661457292567 H 0.0 **** 0.06
29675 H 208.2912806904812 87.15263388765253 76.0089980700136 H 0.0 **** 0.06
29676 C 63.41570991124712 85.80592200202572 105.88445181235095 C 0.0 **** -0.24
29677 H 62.63649447302788 85.05749754544765 105.73653870002023 H 0.0 **** 0.06
29678 H 63.055506914297325 86.77693955709948 105.54352974201463 H 0.0 **** 0.06
29679 H 64.30127995895265 85.52548137575978 105.31453262913188 H 0.0 **** 0.06
29680 H 63.66750336781263 85.86293764813239 106.942914088102 H 0.0 **** 0.06
29681 C 142.1607439327521 69.16363085385821 65.12694343859656 C 0.0 **** -0.24
29682 H 142.75258069040387 69.0749647108939 64.21534499536614 H 0.0 **** 0.06
29683 H 141.11486223219032 69.32450120022277 64.86654119684633 H 0.0 **** 0.06
29684 H 142.52388600558663 70.00725952887878 65.71464544222775 H 0.0 **** 0.06
29685 H 142.25401463016004 68.24724233370202 65.71095098822512 H 0.0 **** 0.06
29686 C 117.12493757663124 8.541923379736104 14.04025676743197 C 0.0 **** -0.24
29687 H 118.0049822045229 8.033382249615187 14.434602449552244 H 0.0 **** 0.06
29688 H 116.34714498489349 8.566082609072339 14.802862914645743 H 0.0 **** 0.06
29689 H 116.75842292669456 8.005613967285825 13.16411215187236 H 0.0 **** 0.06
29690 H 117.38994656352527 9.560076339577677 13.757449584740897 H 0.0 **** 0.06
29691 C 120.78976401594842 91.32709542110585 44.769188061752004 C 0.0 **** -0.24
29692 H 121.32757890775694 91.51744066437884 43.840280116203715 H 0.0 **** 0.06
29693 H 120.67551392808984 90.25209761844259 44.90880102467463 H 0.0 **** 0.06
29694 H 119.80600155083538 91.79469582422531 44.72136105611338 H 0.0 **** 0.06
29695 H 121.35001551206572 91.74617751415197 45.60537381114136 H 0.0 **** 0.06
29696 C 134.98436951086643 172.54413412150058 200.0983411486119 C 0.0 **** -0.24
29697 H 135.08217216536798 171.70055827558986 199.41527412120644 H 0.0 **** 0.06
29698 H 135.49455396424776 172.3141666882865 201.03425672009536 H 0.0 **** 0.06
29699 H 133.92867223687387 172.7321501857479 200.29493811862716 H 0.0 **** 0.06
29700 H 135.43385268026123 173.42927381682716 199.64725052368877 H 0.0 **** 0.06
29701 C 173.8438534596649 128.6990858128076 131.75864589142998 C 0.0 **** -0.24
29702 H 174.9241780919033 128.7989711288718 131.8677823395231 H 0.0 **** 0.06
29703 H 173.38329019374504 128.6441825567648 132.74557712776289 H 0.0 **** 0.06
29704 H 173.61752863822272 127.79163240101929 131.19981183874467 H 0.0 **** 0.06
29705 H 173.45247321557468 129.56336186387836 131.22212977142533 H 0.0 **** 0.06
29706 C 178.34196540864045 4.535448558160255 190.49348775185703 C 0.0 **** -0.24
29707 H 179.3028304078938 4.053676988301589 190.313524593381 H 0.0 **** 0.06
29708 H 178.12685640908504 5.231009905463338 189.68101208910753 H 0.0 **** 0.06
29709 H 178.37902189709035 5.079796479456036 191.4370900480645 H 0.0 **** 0.06
29710 H 177.55857422616194 3.779172736983469 190.54122946659248 H 0.0 **** 0.06
29711 C 152.40952852268526 93.71482580397644 128.7077562653891 C 0.0 **** -0.24
29712 H 152.99612470482037 93.2410725586361 127.92181486379032 H 0.0 **** 0.06
29713 H 152.1908654502193 94.74581488110216 128.42722437221278 H 0.0 **** 0.06
29714 H 152.97380301770278 93.7046050760216 129.63984368296514 H 0.0 **** 0.06
29715 H 151.47557465951604 93.16918029005414 128.84317891955936 H 0.0 **** 0.06
29716 C 180.10003727307316 113.48438864972154 10.15251979410516 C 0.0 **** -0.24
29717 H 179.30829925675548 112.73880279267009 10.240211410083248 H 0.0 **** 0.06
29718 H 180.21087940309855 113.7737096696953 9.107070837559576 H 0.0 **** 0.06
29719 H 181.0370953111097 113.06322528810016 10.51526043806922 H 0.0 **** 0.06
29720 H 179.84051142826843 114.36042046384743 10.746678635008493 H 0.0 **** 0.06
29721 C 58.11196772559293 97.44747891589044 157.44036899758788 C 0.0 **** -0.24
29722 H 59.03240030559721 97.47796805850221 156.85723572323553 H 0.0 **** 0.06
29723 H 57.60714392164766 98.41175190446764 157.37111085551356 H 0.0 **** 0.06
29724 H 58.34919828890844 97.23542950442031 158.48273833619612 H 0.0 **** 0.06
29725 H 57.4595629821456 96.66684305903185 157.04916720093047 H 0.0 **** 0.06
29726 C 18.93761951997334 40.423149853320325 93.32618654685213 C 0.0 **** -0.24
29727 H 19.431334565722352 40.288222155377355 92.36435179526329 H 0.0 **** 0.06
29728 H 17.859196862098827 40.32824161933024 93.19747313383364 H 0.0 **** 0.06
29729 H 19.171069239242428 41.413341267715396 93.71780796123757 H 0.0 **** 0.06
29730 H 19.2892740159989 39.664151393901534 94.0251483439596 H 0.0 **** 0.06
29731 C 129.66653713514887 9.076975549332687 184.98355959340097 C 0.0 **** -0.24
29732 H 129.14856576039938 8.121359367053032 184.90774080130382 H 0.0 **** 0.06
29733 H 129.10904434923413 9.74157036348818 185.6437714289099 H 0.0 **** 0.06
29734 H 129.74367770923163 9.527226745863373 183.99394687776498 H 0.0 **** 0.06
29735 H 130.6658831708816 8.916378967294335 185.3873347356021 H 0.0 **** 0.06
29736 C 92.15399915248268 178.03353554229912 139.0881482630723 C 0.0 **** -0.24
29737 H 92.99934207306411 178.67624556673354 138.8380675887218 H 0.0 **** 0.06
29738 H 92.46841567952195 177.29023204537955 139.82077934056923 H 0.0 **** 0.06
29739 H 91.80227797331251 177.53073892007123 138.18768788495674 H 0.0 **** 0.06
29740 H 91.3496391426173 178.63879002435482 139.5050608521105 H 0.0 **** 0.06
29741 C 102.97821165339201 128.52968295185286 133.65439496014818 C 0.0 **** -0.24
29742 H 103.23895271885635 127.50930534979318 133.3723385952327 H 0.0 **** 0.06
29743 H 103.75312844013717 128.93494434065548 134.3053913689389 H 0.0 **** 0.06
29744 H 102.02488542374795 128.5271890256028 134.1819070452974 H 0.0 **** 0.06
29745 H 102.89679977721812 129.14410653240998 132.75793308064289 H 0.0 **** 0.06
29746 C 62.70793827801157 169.69236468782105 215.6980133490381 C 0.0 **** -0.24
29747 H 62.0579452413715 170.5660866384929 215.73762560519293 H 0.0 **** 0.06
29748 H 63.51896559415495 169.81067338727206 216.41596032872383 H 0.0 **** 0.06
29749 H 63.12146177550332 169.59141618327726 214.6950054537014 H 0.0 **** 0.06
29750 H 62.13130231410557 168.8005639204448 215.9438679723503 H 0.0 **** 0.06
29751 C 123.07002051279058 43.48626462937922 149.2016980372586 C 0.0 **** -0.24
29752 H 122.90125057864095 42.58632120507151 149.79399584883964 H 0.0 **** 0.06
29753 H 122.5889957017503 44.33609828895477 149.68776598388257 H 0.0 **** 0.06
29754 H 122.64759317237746 43.349905203019645 148.20658629894007 H 0.0 **** 0.06
29755 H 124.14107217554742 43.6721081534577 149.12050284054152 H 0.0 **** 0.06
29756 C 59.19115157873523 29.60639529245084 178.74613127219823 C 0.0 **** -0.24
29757 H 58.44991295983294 29.94824017145895 178.0232643843685 H 0.0 **** 0.06
29758 H 60.18593535233964 29.67697539566113 178.30613601012647 H 0.0 **** 0.06
29759 H 58.98513774138664 28.570838676177914 179.01525190582578 H 0.0 **** 0.06
29760 H 59.14256891486065 30.231329102649255 179.63858945946822 H 0.0 **** 0.06
29761 C 50.290748793210184 58.84606503737592 25.091783153818483 C 0.0 **** -0.24
29762 H 50.92496613393854 58.29477421993724 25.78508100768022 H 0.0 **** 0.06
29763 H 50.6999912570472 59.844602954238326 24.941291440316263 H 0.0 **** 0.06
29764 H 49.2840949907864 58.922926125564345 25.50182537096657 H 0.0 **** 0.06
29765 H 50.254741586628995 58.320353220171555 24.137596744544965 H 0.0 **** 0.06
29766 C 60.64458685534085 25.031481071943006 190.78879595849205 C 0.0 **** -0.24
29767 H 61.41998825647606 25.726839714026823 191.11037202104635 H 0.0 **** 0.06
29768 H 60.10369936807379 24.66338430485905 191.65949659600074 H 0.0 **** 0.06
29769 H 61.10472257989824 24.193012205749937 190.26409581046772 H 0.0 **** 0.06
29770 H 59.95307831195022 25.542639763949353 190.11836782895145 H 0.0 **** 0.06
29771 C 2.9160778827279614 171.18963723319422 2.3233633872061787 C 0.0 **** -0.24
29772 H 2.77745892089726 170.14784429393168 2.0350001007385146 H 0.0 **** 0.06
29773 H 3.03740939495475 171.25337662451665 3.4049941472521823 H 0.0 **** 0.06
29774 H 2.0450977063412097 171.76957443168288 2.0198316800821488 H 0.0 **** 0.06
29775 H 3.805644360986207 171.58732481382015 1.8339870285691333 H 0.0 **** 0.06
29776 C 36.60608494452593 86.71827494494346 206.4226365961787 C 0.0 **** -0.24
29777 H 36.46096789460033 85.78016637568862 205.88677141405654 H 0.0 **** 0.06
29778 H 36.895736978760695 87.49821491752328 205.71836784311978 H 0.0 **** 0.06
29779 H 37.38967516507515 86.59196830512542 207.16921755153936 H 0.0 **** 0.06
29780 H 35.67622863104495 87.00057445586759 206.91670882235314 H 0.0 **** 0.06
29781 C 101.5749687171046 64.26813636481693 170.77246360517583 C 0.0 **** -0.24
29782 H 101.86101360488074 63.8070568954751 169.82693243826662 H 0.0 **** 0.06
29783 H 102.16795652146443 65.16891782465223 170.93076509643575 H 0.0 **** 0.06
29784 H 101.75279488732842 63.56697842976416 171.5876080912776 H 0.0 **** 0.06
29785 H 100.51707080024791 64.52942835579937 170.74233664945905 H 0.0 **** 0.06
29786 C 154.3639442065101 119.78459608605017 160.4343861955088 C 0.0 **** -0.24
29787 H 153.35933567914168 120.15967640525928 160.24012196802926 H 0.0 **** 0.06
29788 H 155.02700205727058 120.08455973170273 159.62269583543346 H 0.0 **** 0.06
29789 H 154.33958538104855 118.69625947696456 160.5008635082492 H 0.0 **** 0.06
29790 H 154.73082727396877 120.19784200741823 161.37408708686246 H 0.0 **** 0.06
29791 C 67.64689528328597 128.2960730857156 148.2933179779742 C 0.0 **** -0.24
29792 H 67.43115106113689 129.29402390303312 147.9105612041347 H 0.0 **** 0.06
29793 H 66.74313438186562 127.68911290369681 148.25513837062613 H 0.0 **** 0.06
29794 H 67.99250967162934 128.36893957656957 149.3246245812561 H 0.0 **** 0.06
29795 H 68.42202471028108 127.83285407616347 147.68318959012652 H 0.0 **** 0.06
29796 C 198.08315858325466 9.03021611506189 15.713469416946921 C 0.0 **** -0.24
29797 H 197.66824808541278 9.0000536127677 14.706202505359286 H 0.0 **** 0.06
29798 H 197.76317261271174 9.945346134008702 16.211519776293343 H 0.0 **** 0.06
29799 H 199.17153771248366 9.006988618808094 15.658156739825287 H 0.0 **** 0.06
29800 H 197.72930368087387 8.16676424796917 16.277033718887466 H 0.0 **** 0.06
29801 C 43.721147441647275 13.395018178126762 156.7824421917661 C 0.0 **** -0.24
29802 H 43.92624105978173 13.102970219007489 157.81208422865666 H 0.0 **** 0.06
29803 H 44.60161327698425 13.878592409199399 156.35976736877137 H 0.0 **** 0.06
29804 H 42.88070042877884 14.088780919277028 156.76236201466202 H 0.0 **** 0.06
29805 H 43.47603500104418 12.50972916502299 156.1955551549746 H 0.0 **** 0.06
29806 C 136.87745095679594 173.59221961909634 12.18978982144182 C 0.0 **** -0.24
29807 H 137.1300456241733 173.39679018933708 13.231986256766561 H 0.0 **** 0.06
29808 H 137.52921226892897 173.00480234192216 11.542458156455211 H 0.0 **** 0.06
29809 H 137.01176262959757 174.65203705779163 11.975695237969717 H 0.0 **** 0.06
29810 H 135.8395882916114 173.31353524568743 12.009664224232495 H 0.0 **** 0.06
29811 C 155.3239637780972 126.14215452820282 171.2800300975872 C 0.0 **** -0.24
29812 H 155.82255666208357 125.40535707160426 171.90920794808613 H 0.0 **** 0.06
29813 H 155.17132531653766 127.05985454150776 171.8481219246264 H 0.0 **** 0.06
29814 H 154.35946606779964 125.75037179917923 170.9563163287295 H 0.0 **** 0.06
29815 H 155.94211644977287 126.3524148731746 170.4076838446211 H 0.0 **** 0.06
29816 C 107.82201767082218 178.86046997116586 181.09680541938766 C 0.0 **** -0.24
29817 H 107.17189090444846 178.08631168827546 180.6890661894629 H 0.0 **** 0.06
29818 H 107.21462733410486 179.62339203198786 181.5844282814382 H 0.0 **** 0.06
29819 H 108.39593193252783 179.31475679382535 180.28855542389334 H 0.0 **** 0.06
29820 H 108.50310199543843 178.41831035127814 181.8232062260646 H 0.0 **** 0.06
29821 C 144.32580303211574 18.56273575861013 196.38399731567029 C 0.0 **** -0.24
29822 H 144.9886808009283 18.37681443165151 195.53809632588553 H 0.0 **** 0.06
29823 H 144.4023365104543 17.738381132749396 197.09345642312726 H 0.0 **** 0.06
29824 H 143.2986468990232 18.64258844840991 196.0290283713516 H 0.0 **** 0.06
29825 H 144.61464999815888 19.491883465841255 196.87363093141948 H 0.0 **** 0.06
29826 C 31.870453807434416 58.90724407421567 127.87528843769762 C 0.0 **** -0.24
29827 H 31.12979280353416 58.13253395948472 127.67953697627463 H 0.0 **** 0.06
29828 H 32.75719795433274 58.457358086410196 128.32177869734772 H 0.0 **** 0.06
29829 H 31.45296888635771 59.64538896329003 128.55979526254686 H 0.0 **** 0.06
29830 H 32.143207644092485 59.393940431826394 126.93827874923467 H 0.0 **** 0.06
29831 C 186.34781520966735 72.85974779795401 26.847407536943933 C 0.0 **** -0.24
29832 H 185.84100525522695 71.89949862537799 26.945056600122157 H 0.0 **** 0.06
29833 H 185.61432644272088 73.63601007084071 26.62307453274836 H 0.0 **** 0.06
29834 H 187.07656272325372 72.80493119897972 26.039659858520892 H 0.0 **** 0.06
29835 H 186.8565126442051 73.09904034141425 27.781053684621043 H 0.0 **** 0.06
29836 C 203.93607326375093 148.31159661395463 55.210964489373055 C 0.0 **** -0.24
29837 H 202.93592230202646 148.67279673125722 55.45091379602276 H 0.0 **** 0.06
29838 H 204.02976548485063 147.27012813489785 55.51919705944651 H 0.0 **** 0.06
29839 H 204.6757546621983 148.91469106565836 55.73706964987396 H 0.0 **** 0.06
29840 H 204.10133932750213 148.3895089157536 54.136264092752654 H 0.0 **** 0.06
29841 C 158.43623596040914 50.382178462329264 116.61415373199247 C 0.0 **** -0.24
29842 H 158.61452361730306 50.97235026539255 117.51283102906837 H 0.0 **** 0.06
29843 H 157.9755801391001 49.43307475289512 116.88774557303384 H 0.0 **** 0.06
29844 H 159.38353118156925 50.194551041810925 116.10855917771096 H 0.0 **** 0.06
29845 H 157.77106404892874 50.929499028401665 115.94539093221738 H 0.0 **** 0.06
29846 C 46.36945345938999 52.344413281577175 177.78116296296957 C 0.0 **** -0.24
29847 H 45.76100140105075 52.998581080966346 178.40502970114903 H 0.0 **** 0.06
29848 H 45.791277686057626 51.45967877372716 177.51217265762162 H 0.0 **** 0.06
29849 H 47.25958770474023 52.042489754666164 178.33286246619375 H 0.0 **** 0.06
29850 H 46.66465538838176 52.87569432949334 176.877392320745 H 0.0 **** 0.06
29851 C 179.25410162640256 174.8444195181395 82.89365008895287 C 0.0 **** -0.24
29852 H 178.9384883943053 174.69979845390702 81.86097872185927 H 0.0 **** 0.06
29853 H 180.2968821654597 174.543993911195 82.99967533138378 H 0.0 **** 0.06
29854 H 178.63265953073022 174.23793885581554 83.55221675840791 H 0.0 **** 0.06
29855 H 179.14970330963507 175.89592624158874 83.16124070875266 H 0.0 **** 0.06
29856 C 85.18748338692178 153.84659462543863 8.382945868405443 C 0.0 **** -0.24
29857 H 85.58435640933747 153.0193838875329 7.795235633380798 H 0.0 **** 0.06
29858 H 84.40143198040768 153.47897247972264 9.043171053335243 H 0.0 **** 0.06
29859 H 84.77638428997012 154.60241084620708 7.713839369240418 H 0.0 **** 0.06
29860 H 85.98686002281418 154.285415836403 8.979149740595972 H 0.0 **** 0.06
29861 C 93.86292114533428 20.7666062979102 76.651299505382 C 0.0 **** -0.24
29862 H 94.41124599701193 20.363189207026522 75.79915886617049 H 0.0 **** 0.06
29863 H 92.9101273602064 20.24632210938843 76.7487443679495 H 0.0 **** 0.06
29864 H 93.6829032889798 21.830751594795217 76.49633335605601 H 0.0 **** 0.06
29865 H 94.4488453083387 20.624950421768716 77.55939125347588 H 0.0 **** 0.06
29866 C 171.36540288531643 11.51895918520539 213.87053312379965 C 0.0 **** -0.24
29867 H 170.32298284091934 11.20933089896424 213.95253880189398 H 0.0 **** 0.06
29868 H 171.95983334032073 10.991934337345555 214.61681951628404 H 0.0 **** 0.06
29869 H 171.44001766057704 12.592944250863994 214.03816019171168 H 0.0 **** 0.06
29870 H 171.73694742134504 11.279051554996073 212.87448738353882 H 0.0 **** 0.06
29871 C 86.8665975022845 41.68956280767907 106.7528800246093 C 0.0 **** -0.24
29872 H 87.88407505534836 41.947504340806574 106.46149418522835 H 0.0 **** 0.06
29873 H 86.25610324618388 41.55647641983563 105.85844391578557 H 0.0 **** 0.06
29874 H 86.44889356632267 42.49088597911691 107.36228114959339 H 0.0 **** 0.06
29875 H 86.87716614580636 40.76353070489995 107.32758167078718 H 0.0 **** 0.06
29876 C 190.610907945203 208.27457447387332 171.7796008498959 C 0.0 **** -0.24
29877 H 191.3764097014867 209.0340925897595 171.62446732834945 H 0.0 **** 0.06
29878 H 190.63134683308482 207.56474801388453 170.95280112731015 H 0.0 **** 0.06
29879 H 189.6310222783958 208.7498144666294 171.82703679540126 H 0.0 **** 0.06
29880 H 190.80491520304406 207.74861396133835 172.71506644588973 H 0.0 **** 0.06
29881 C 137.69638719030962 8.50229997624028 185.01305054461295 C 0.0 **** -0.24
29882 H 137.9601396350128 9.075044052778054 184.12423729162822 H 0.0 **** 0.06
29883 H 137.51289479522154 9.183672154219309 185.8436266262911 H 0.0 **** 0.06
29884 H 138.5164053485385 7.829929114934288 185.26879614570072 H 0.0 **** 0.06
29885 H 136.79714145084688 7.918582027788133 184.81574976743997 H 0.0 **** 0.06
29886 C 151.98363176738343 21.804966782181168 31.67799351658914 C 0.0 **** -0.24
29887 H 153.06403846137096 21.927199903508154 31.761291741001855 H 0.0 **** 0.06
29888 H 151.57878590526616 21.49557295592348 32.64161140052704 H 0.0 **** 0.06
29889 H 151.76037143443716 21.046468022428314 30.928636747022438 H 0.0 **** 0.06
29890 H 151.53303281355716 22.752846899399742 31.381517505613203 H 0.0 **** 0.06
29891 C 72.87379381772679 39.18722941932543 114.35439392794 C 0.0 **** -0.24
29892 H 72.22604517255523 39.48926149221012 115.17811686494197 H 0.0 **** 0.06
29893 H 73.53176019629593 38.38398039308089 114.68578701867766 H 0.0 **** 0.06
29894 H 73.47326201783856 40.03993144350687 114.03282542572701 H 0.0 **** 0.06
29895 H 72.26348723564799 38.83773641873182 113.52165047722634 H 0.0 **** 0.06
29896 C 186.12024272271003 86.31812794299486 99.1843409645396 C 0.0 **** -0.24
29897 H 186.13572068366926 85.60788121976054 98.35772185055832 H 0.0 **** 0.06
29898 H 186.85996274697138 86.02367726621435 99.9300649438522 H 0.0 **** 0.06
29899 H 185.12998398588485 86.32666064766119 99.63803021602958 H 0.0 **** 0.06
29900 H 186.35744594369925 87.31481509071921 98.81117677584022 H 0.0 **** 0.06
29901 C 187.6793759500403 43.05105116697632 199.1125425011948 C 0.0 **** -0.24
29902 H 186.7972533360778 43.22996173347042 198.49886439593686 H 0.0 **** 0.06
29903 H 188.5741107237036 43.138001634406066 198.49606830181824 H 0.0 **** 0.06
29904 H 187.62783380372983 42.05002132344174 199.54091593428663 H 0.0 **** 0.06
29905 H 187.71867372492207 43.78850649894366 199.91511927560902 H 0.0 **** 0.06
29906 C 100.96875482098058 155.30429998693745 68.8047169770141 C 0.0 **** -0.24
29907 H 101.3743222071494 154.37117701463575 69.19609627542275 H 0.0 **** 0.06
29908 H 100.70017336136026 155.1719888049298 67.75695990781918 H 0.0 **** 0.06
29909 H 101.71933724512967 156.09037991881638 68.8909115967408 H 0.0 **** 0.06
29910 H 100.08329702751233 155.5841405019865 69.3760443174657 H 0.0 **** 0.06
29911 C 136.52452399292747 44.894368094185495 212.6422952059142 C 0.0 **** -0.24
29912 H 137.52063574070735 44.46961163873232 212.76203432801424 H 0.0 **** 0.06
29913 H 135.82119193281397 44.35472178546752 213.2754831635121 H 0.0 **** 0.06
29914 H 136.2163522643907 44.809204751305685 211.60092375284717 H 0.0 **** 0.06
29915 H 136.5413009892946 45.945900466999944 212.93120412089772 H 0.0 **** 0.06
29916 C 213.66254438782155 210.35592349374986 206.80494297098218 C 0.0 **** -0.24
29917 H 213.68241650469992 211.35702105330188 207.23419218833368 H 0.0 **** 0.06
29918 H 214.56149562771222 209.81511629008952 207.1032522037793 H 0.0 **** 0.06
29919 H 213.62466519437794 210.42724207758775 205.71825996703058 H 0.0 **** 0.06
29920 H 212.78158294427274 209.82408241787942 207.1657838770371 H 0.0 **** 0.06
29921 C 140.30595532195576 44.274672857254444 19.82907836523981 C 0.0 **** -0.24
29922 H 140.53065015443082 45.06065481800147 20.550465733903053 H 0.0 **** 0.06
29923 H 139.72264758592405 43.49145900872119 20.315146591167576 H 0.0 **** 0.06
29924 H 141.2366429970309 43.85269163281953 19.449930066244903 H 0.0 **** 0.06
29925 H 139.73308660149814 44.69407898632579 19.001925376134807 H 0.0 **** 0.06
29926 C 165.50202227166596 10.882829326995079 54.339757615799655 C 0.0 **** -0.24
29927 H 166.01353990693747 9.936009854421442 54.51483400804446 H 0.0 **** 0.06
29928 H 164.7197053044934 11.016043524421619 55.08622614034243 H 0.0 **** 0.06
29929 H 165.0581886468116 10.87697020014906 53.34457195014426 H 0.0 **** 0.06
29930 H 166.21832286570964 11.700878872632586 54.41293226155405 H 0.0 **** 0.06
29931 C 143.24965658658658 144.1817030275982 197.1430904856154 C 0.0 **** -0.24
29932 H 144.30700625300955 144.3487696801563 196.93602632990581 H 0.0 **** 0.06
29933 H 142.85452705285354 145.02154053665726 197.7139737784713 H 0.0 **** 0.06
29934 H 143.13291630692964 143.26347263796941 197.71901218290344 H 0.0 **** 0.06
29935 H 142.70606360297324 144.0926178054009 196.20282955473357 H 0.0 **** 0.06
29936 C 200.4908903260697 205.65672201109265 85.06514282782952 C 0.0 **** -0.24
29937 H 200.3547100764272 206.71872810123716 84.85962604053536 H 0.0 **** 0.06
29938 H 201.3892160031865 205.30274302688198 84.56058859659286 H 0.0 **** 0.06
29939 H 199.62538514278515 205.10242617749128 84.70091891528607 H 0.0 **** 0.06
29940 H 200.59289568548826 205.5060048733871 86.13972199349531 H 0.0 **** 0.06
29941 C 163.20136372187633 30.64046406160287 54.339372278678 C 0.0 **** -0.24
29942 H 164.20652583088656 30.322094968856533 54.61782229466748 H 0.0 **** 0.06
29943 H 162.80239562485917 31.297579433913683 55.11219372237818 H 0.0 **** 0.06
29944 H 162.55883321756258 29.765874890832947 54.23820673075208 H 0.0 **** 0.06
29945 H 163.240238359201 31.176073835902116 53.39084865291433 H 0.0 **** 0.06
29946 C 127.97979633573131 53.09346371310794 92.22514040103532 C 0.0 **** -0.24
29947 H 128.49380265196783 52.57013455078665 91.41837014512056 H 0.0 **** 0.06
29948 H 127.77859030527715 54.12126064566483 91.92202368088509 H 0.0 **** 0.06
29949 H 128.608075888026 53.09301944673834 93.11573949156995 H 0.0 **** 0.06
29950 H 127.03940744570043 52.58849792002225 92.44363159608498 H 0.0 **** 0.06
29951 C 94.96782862875521 144.66870851349296 95.24786830364621 C 0.0 **** -0.24
29952 H 95.92793341439405 144.7353975595475 94.73644333032792 H 0.0 **** 0.06
29953 H 94.33980554441588 143.93088394944562 94.74661378948792 H 0.0 **** 0.06
29954 H 94.47618187292254 145.64085523160725 95.2243024449599 H 0.0 **** 0.06
29955 H 95.12761600300423 144.3667568851401 96.28209715447599 H 0.0 **** 0.06
29956 C 210.87670371800925 153.85017373449006 200.85565342525928 C 0.0 **** -0.24
29957 H 210.13030436754673 154.61778782449267 200.65295723953665 H 0.0 **** 0.06
29958 H 211.08704173574657 153.296399163609 199.94010288203168 H 0.0 **** 0.06
29959 H 210.49765190173724 153.166224736402 201.61506018472198 H 0.0 **** 0.06
29960 H 211.79247149182515 154.31968802380862 201.214027312588 H 0.0 **** 0.06
29961 C 133.14654022430534 115.07879402786891 214.98305119045568 C 0.0 **** -0.24
29962 H 132.85065183491577 116.06204376852675 214.61954999734053 H 0.0 **** 0.06
29963 H 133.57112203810829 114.500342757057 214.1619089585 H 0.0 **** 0.06
29964 H 132.27345946805332 114.56050513066897 215.3792692428304 H 0.0 **** 0.06
29965 H 133.89032810104345 115.1910035742314 215.77147096263766 H 0.0 **** 0.06
29966 C 210.46399993830266 22.01156986940225 86.70918400230208 C 0.0 **** -0.24
29967 H 209.67752895642036 21.97590401783293 85.95559825964877 H 0.0 **** 0.06
29968 H 210.16999232858478 22.691563903923935 87.50988732223713 H 0.0 **** 0.06
29969 H 211.3890314634824 22.36601047693958 86.25305387697553 H 0.0 **** 0.06
29970 H 210.6201618982317 21.01320644749353 87.11934747931217 H 0.0 **** 0.06
29971 C 72.02862011119474 122.5886819907504 3.4469384594958257 C 0.0 **** -0.24
29972 H 72.25385556179135 122.79369646409076 2.400378765416079 H 0.0 **** 0.06
29973 H 72.01361940884344 121.51130098042289 3.611374686277287 H 0.0 **** 0.06
29974 H 71.05361766846828 123.00834397465731 3.69567567285052 H 0.0 **** 0.06
29975 H 72.79164238095028 123.04310068014358 4.078905077986413 H 0.0 **** 0.06
29976 C 157.76823619899966 57.68603645449582 80.47006167627946 C 0.0 **** -0.24
29977 H 157.10857921867137 57.86668389061262 81.31836604200107 H 0.0 **** 0.06
29978 H 157.23001323231648 57.885833274843776 79.54280366065616 H 0.0 **** 0.06
29979 H 158.09886858524055 56.64775590759672 80.48176027573756 H 0.0 **** 0.06
29980 H 158.63469336419138 58.34406007448331 80.5378999928855 H 0.0 **** 0.06
29981 C 182.062158785485 93.96013451877674 87.82620036851415 C 0.0 **** -0.24
29982 H 181.04941418498024 93.55825653470863 87.8301476434101 H 0.0 **** 0.06
29983 H 182.77854707142558 93.13952607592218 87.77659431685413 H 0.0 **** 0.06
29984 H 182.22950077242706 94.53378304298177 88.73763613776373 H 0.0 **** 0.06
29985 H 182.19294025685062 94.60802142218976 86.95901877465968 H 0.0 **** 0.06
29986 C 55.8216098596254 188.55954536970506 58.99438315481524 C 0.0 **** -0.24
29987 H 56.61069792158287 188.46603765370634 58.249173485586056 H 0.0 **** 0.06
29988 H 55.16594796575143 187.68981195324238 58.940157499961515 H 0.0 **** 0.06
29989 H 55.24388524742733 189.46333776540536 58.80086386944413 H 0.0 **** 0.06
29990 H 56.26570861423335 188.61845246053338 59.988628801713446 H 0.0 **** 0.06
29991 C 70.62887260602714 166.81071887454027 147.22165359463003 C 0.0 **** -0.24
29992 H 69.5662870556264 167.02441610554462 147.33986352994037 H 0.0 **** 0.06
29993 H 71.19506365547564 167.73995110239946 147.28018809892313 H 0.0 **** 0.06
29994 H 70.79848609097301 166.3416864466824 146.25199798613687 H 0.0 **** 0.06
29995 H 70.95321110186192 166.1357615378672 148.01361083338884 H 0.0 **** 0.06
29996 C 189.55786389053497 93.8547546343613 40.06907315923107 C 0.0 **** -0.24
29997 H 189.50449576598757 92.87552639232563 39.59362176881463 H 0.0 **** 0.06
29998 H 190.0771742856939 93.76663938128407 41.02379331010205 H 0.0 **** 0.06
29999 H 188.54916574538373 94.23176339226681 40.23780840953762 H 0.0 **** 0.06
30000 H 190.09974997343633 94.54374646158304 39.421732553416575 H 0.0 **** 0.06
30001 C 181.21243235152576 125.12492288779312 63.75560078711226 C 0.0 **** -0.24
30002 H 181.16903836782245 125.28312797032542 62.67730338995733 H 0.0 **** 0.06
30003 H 180.41710470550174 124.44213697907286 64.05414638007892 H 0.0 **** 0.06
30004 H 181.08431321071166 126.07828917882831 64.26740086846843 H 0.0 **** 0.06
30005 H 182.17871825329533 124.69591673557558 64.0202900562407 H 0.0 **** 0.06
30006 C 119.37476572982614 72.85363837676977 117.42620642622514 C 0.0 **** -0.24
30007 H 119.48333701717932 71.87605485965014 117.89548659002718 H 0.0 **** 0.06
30008 H 120.15640695084876 72.98650700751563 116.67887179657457 H 0.0 **** 0.06
30009 H 119.4602009819035 73.63154624397936 118.18526130763972 H 0.0 **** 0.06
30010 H 118.39773804306473 72.91910336110749 116.94672088609995 H 0.0 **** 0.06
30011 C 149.87926097076183 24.367711392784344 14.080257780627221 C 0.0 **** -0.24
30012 H 148.96210036804354 24.759590640550556 13.640115500200721 H 0.0 **** 0.06
30013 H 150.65179925173675 24.306188480133557 13.31280700216027 H 0.0 **** 0.06
30014 H 149.69074465334154 23.37465846521374 14.48690947442664 H 0.0 **** 0.06
30015 H 150.2110020113259 25.030718894562767 14.878044742935671 H 0.0 **** 0.06
30016 C 126.44234174440597 163.40679811617107 50.464281460804415 C 0.0 **** -0.24
30017 H 126.18816999351434 162.39021213135265 50.16182680740894 H 0.0 **** 0.06
30018 H 127.29664105563954 163.37986513635394 51.14169747836044 H 0.0 **** 0.06
30019 H 125.59024384242507 163.8586931601092 50.970776425813796 H 0.0 **** 0.06
30020 H 126.69585562478905 163.99502949172626 49.582495946448674 H 0.0 **** 0.06
30021 C 184.8753684580662 76.74813932438451 72.34778492132904 C 0.0 **** -0.24
30022 H 185.13694429729404 77.75215348543782 72.6823649365898 H 0.0 **** 0.06
30023 H 185.7782886143067 76.22098498180662 72.03946588338289 H 0.0 **** 0.06
30024 H 184.18827399342405 76.81436489767628 71.50425335373069 H 0.0 **** 0.06
30025 H 184.398342982877 76.20700434878421 73.16402860184155 H 0.0 **** 0.06
30026 C 194.53908233050208 41.44816671516577 97.14265902920992 C 0.0 **** -0.24
30027 H 193.8943723152841 41.38271195612248 98.01965493777375 H 0.0 **** 0.06
30028 H 194.14790270583046 42.202085647430636 96.46040551266127 H 0.0 **** 0.06
30029 H 194.5662577478744 40.48102150893675 96.64001621912224 H 0.0 **** 0.06
30030 H 195.5466572320811 41.72542197778114 97.45350381987687 H 0.0 **** 0.06
30031 C 0.7427690591571263 185.11919049794466 107.7816882995014 C 0.0 **** -0.24
30032 H 0.7330075026659415 186.16875101792536 107.48897589649671 H 0.0 **** 0.06
30033 H 0.22319053153017876 184.5274167161865 107.02640151680431 H 0.0 **** 0.06
30034 H 0.2400014339919494 185.00563896908494 108.74188093339667 H 0.0 **** 0.06
30035 H 1.7730864229066583 184.77531816628243 107.86786295537452 H 0.0 **** 0.06
30036 C 101.4811126518337 193.41429476539497 127.05831536646527 C 0.0 **** -0.24
30037 H 100.51558835112014 193.05852069995487 127.4163764749482 H 0.0 **** 0.06
30038 H 102.15027796438382 192.56582621294183 126.91316011291751 H 0.0 **** 0.06
30039 H 101.91122398027555 194.09618293147042 127.79267149952103 H 0.0 **** 0.06
30040 H 101.34633122102848 193.93836779377062 126.11204713500705 H 0.0 **** 0.06
30041 C 121.74548082506759 208.05798571621497 133.63036437090204 C 0.0 **** -0.24
30042 H 122.54453966561964 208.32872118520467 134.32109762291157 H 0.0 **** 0.06
30043 H 121.10420751043132 207.30792642076483 134.09384439734998 H 0.0 **** 0.06
30044 H 122.17859203508719 207.65219622724914 132.71669556379936 H 0.0 **** 0.06
30045 H 121.15671389134842 208.94328208353022 133.3921502651869 H 0.0 **** 0.06
30046 C 51.79522997200969 105.58417573365615 194.77654131767974 C 0.0 **** -0.24
30047 H 52.1855679545547 104.7924639978916 195.41599571245615 H 0.0 **** 0.06
30048 H 51.8291762295229 105.26084086093546 193.73556755765978 H 0.0 **** 0.06
30049 H 52.4029225847504 106.48171178612738 194.89830702085845 H 0.0 **** 0.06
30050 H 50.76550352655667 105.80238227484789 195.05696682280907 H 0.0 **** 0.06
30051 C 165.4401147412624 58.30619872896169 29.30365210478267 C 0.0 **** -0.24
30052 H 165.52222937665783 57.3742722675878 29.864808436124278 H 0.0 **** 0.06
30053 H 166.25840825027223 58.97094165207402 29.58252615436892 H 0.0 **** 0.06
30054 H 164.48811252375498 58.78551429477656 29.534178722317378 H 0.0 **** 0.06
30055 H 165.4916461757411 58.093375225944854 28.23601368313527 H 0.0 **** 0.06
30056 C 139.00766774513278 53.159750883865 145.21086883281095 C 0.0 **** -0.24
30057 H 139.40597761516085 53.8102582609842 144.4320032846132 H 0.0 **** 0.06
30058 H 139.60120380662414 52.246231909692 145.2598094371096 H 0.0 **** 0.06
30059 H 137.97285039810862 52.90857184148845 144.97979033830325 H 0.0 **** 0.06
30060 H 139.05177831749728 53.67415771580562 146.17106256982527 H 0.0 **** 0.06
30061 C 130.92962302387173 191.61463431933964 123.47373294611377 C 0.0 **** -0.24
30062 H 130.1739152076364 191.19003112597213 122.81318623726399 H 0.0 **** 0.06
30063 H 131.77548836427133 190.92980949391 123.54510483043158 H 0.0 **** 0.06
30064 H 130.50182862566618 191.7666914328277 124.46485490111668 H 0.0 **** 0.06
30065 H 131.26771200039065 192.56971445087518 123.07252612676756 H 0.0 **** 0.06
30066 C 72.52787006658542 67.7466868122948 57.40224689017471 C 0.0 **** -0.24
30067 H 72.95625292486955 66.74324714040961 57.39151706170941 H 0.0 **** 0.06
30068 H 73.32836079954149 68.4834671694731 57.33426578305429 H 0.0 **** 0.06
30069 H 71.97479454774742 67.894771955653 58.32957983565481 H 0.0 **** 0.06
30070 H 71.85360803931218 67.86212892678279 56.55453647532039 H 0.0 **** 0.06
30071 C 172.14660879419114 182.87516938067046 156.92040450293086 C 0.0 **** -0.24
30072 H 171.5757897228992 181.99677204164797 156.62166077507953 H 0.0 **** 0.06
30073 H 172.85960332592546 183.12962954432743 156.13556695536016 H 0.0 **** 0.06
30074 H 172.68501327975662 182.661874351913 157.8445576286869 H 0.0 **** 0.06
30075 H 171.46761923697244 183.71240754846784 157.08051871292986 H 0.0 **** 0.06
30076 C 17.873480657591415 3.0544089582414173 123.92495487934714 C 0.0 **** -0.24
30077 H 18.37378977576404 2.493790130126335 123.13601987938235 H 0.0 **** 0.06
30078 H 18.53973472595129 3.832972213967672 124.29614068906965 H 0.0 **** 0.06
30079 H 17.61215874812143 2.3800912790355966 124.7406623442955 H 0.0 **** 0.06
30080 H 16.966795258363675 3.511543712252042 123.52641809268037 H 0.0 **** 0.06
30081 C 4.360412932657212 95.77414201154977 70.04411543806582 C 0.0 **** -0.24
30082 H 5.136100270891632 96.53362826115665 70.1286073609942 H 0.0 **** 0.06
30083 H 3.945135026129279 95.78907360391747 69.03606362531963 H 0.0 **** 0.06
30084 H 3.570211002695004 95.97956472815383 70.76650630194167 H 0.0 **** 0.06
30085 H 4.7896063731608365 94.79199179971079 70.24583829910993 H 0.0 **** 0.06
30086 C 119.79228767052793 13.2560821875189 202.05116308974044 C 0.0 **** -0.24
30087 H 120.41697735807323 14.147762375591384 202.09323869029805 H 0.0 **** 0.06
30088 H 120.40676309725667 12.394812974049614 201.7885770425897 H 0.0 **** 0.06
30089 H 119.0158446537382 13.392006500475858 201.29821424529968 H 0.0 **** 0.06
30090 H 119.3307850125703 13.090417376990061 203.0243704647396 H 0.0 **** 0.06
30091 C 131.42335968123314 44.680215024403424 135.46342097512553 C 0.0 **** -0.24
30092 H 131.19682646212345 45.02342322441882 136.47335561918044 H 0.0 **** 0.06
30093 H 131.1472503391223 43.629285927772884 135.3670838932041 H 0.0 **** 0.06
30094 H 132.49027043660266 44.794655505991386 135.27206018652328 H 0.0 **** 0.06
30095 H 130.85836863880985 45.2715213922169 134.74374951140186 H 0.0 **** 0.06
30096 C 89.54220185294177 134.9689397601689 84.8276463486531 C 0.0 **** -0.24
30097 H 89.21488526447921 134.45221249007488 85.72973387909258 H 0.0 **** 0.06
30098 H 90.07674419895123 135.87796222792133 85.10348827955659 H 0.0 **** 0.06
30099 H 88.67495999856033 135.22646071530028 84.2207858732105 H 0.0 **** 0.06
30100 H 90.20468569911132 134.3170092076369 84.25724047163374 H 0.0 **** 0.06
30101 C 104.86800981046618 73.92851563662246 38.26258898962635 C 0.0 **** -0.24
30102 H 105.88550489365569 73.5543656419746 38.37063830463005 H 0.0 **** 0.06
30103 H 104.81188218097698 74.94627173484109 38.6500723669122 H 0.0 **** 0.06
30104 H 104.1843890662703 73.28903238220913 38.821235556332 H 0.0 **** 0.06
30105 H 104.58946615791861 73.92441775229592 37.209013283025214 H 0.0 **** 0.06
30106 C 139.85312190421672 101.38885935243168 211.02458870253645 C 0.0 **** -0.24
30107 H 139.4117255504542 101.11542606183572 211.98210298587418 H 0.0 **** 0.06
30108 H 139.47260874519634 100.72676152563581 210.24613616190481 H 0.0 **** 0.06
30109 H 140.93770459866528 101.29368271923035 211.08410288500178 H 0.0 **** 0.06
30110 H 139.59160900860917 102.42000987924898 210.78533622775393 H 0.0 **** 0.06
30111 C 18.400993249089623 67.56353898100869 50.35814523334159 C 0.0 **** -0.24
30112 H 18.54054675765211 66.6379693369258 49.799645646578824 H 0.0 **** 0.06
30113 H 17.475142425010205 68.04305798232855 50.04186703336114 H 0.0 **** 0.06
30114 H 19.240517436001156 68.23290845568636 50.16719287477599 H 0.0 **** 0.06
30115 H 18.349964886434066 67.34061832049531 51.4239653986711 H 0.0 **** 0.06
30116 C 112.0251555545845 145.42499918213065 73.75777940241572 C 0.0 **** -0.24
30117 H 111.39151801473878 146.00643912233807 74.42828758167029 H 0.0 **** 0.06
30118 H 112.25931653880497 146.0188792769755 72.87417926322026 H 0.0 **** 0.06
30119 H 111.50033557361542 144.51767425976522 73.45744688241588 H 0.0 **** 0.06
30120 H 112.94877809177598 145.15822578947558 74.27143444442432 H 0.0 **** 0.06
30121 C 97.06899420266002 161.35435749880838 115.22026784547576 C 0.0 **** -0.24
30122 H 98.05675803395233 161.73656526502347 114.96400633392726 H 0.0 **** 0.06
30123 H 96.77125798157182 161.7430681978377 116.19476017145591 H 0.0 **** 0.06
30124 H 97.09914277629348 160.26575225087115 115.25794810899548 H 0.0 **** 0.06
30125 H 96.34917059064061 161.67166566575062 114.46675102000067 H 0.0 **** 0.06
30126 C 209.4448833876755 56.62246132721788 205.6758052855189 C 0.0 **** -0.24
30127 H 208.78270984443492 56.3919551198598 204.84105668329752 H 0.0 **** 0.06
30128 H 209.67715760677623 57.68722621094827 205.6724054124699 H 0.0 **** 0.06
30129 H 210.3666036535019 56.04898216203242 205.57612309011512 H 0.0 **** 0.06
30130 H 208.95313020294657 56.359935410182544 206.61224112274343 H 0.0 **** 0.06
30131 C 12.536788530735379 87.70332284683296 208.9037949069824 C 0.0 **** -0.24
30132 H 11.56442055888428 87.90841786661458 208.45644080804726 H 0.0 **** 0.06
30133 H 12.396589497940312 87.22270358777895 209.8726362335459 H 0.0 **** 0.06
30134 H 13.080598726558378 88.63863223389474 209.0362032051399 H 0.0 **** 0.06
30135 H 13.10462496477615 87.04260962774846 208.2487628756849 H 0.0 **** 0.06
30136 C 32.1333493465109 156.5752687336324 137.51699769668335 C 0.0 **** -0.24
30137 H 31.390718856381 156.1700996431506 136.8292280333137 H 0.0 **** 0.06
30138 H 31.799810488467585 156.42128359074337 138.54290925798705 H 0.0 **** 0.06
30139 H 32.255449893681316 157.6420324333531 137.33030062651085 H 0.0 **** 0.06
30140 H 33.085854304859026 156.06796201693015 137.36398353035167 H 0.0 **** 0.06
30141 C 86.83991730018505 138.44979855390034 43.744339552652605 C 0.0 **** -0.24
30142 H 86.52863278723174 137.8929020131515 44.62770885209443 H 0.0 **** 0.06
30143 H 86.40112840743598 139.4475316488241 43.77083720984086 H 0.0 **** 0.06
30144 H 86.5026342239592 137.92739572759018 42.848894101084056 H 0.0 **** 0.06
30145 H 87.92709238314376 138.53078486291201 43.73071224790462 H 0.0 **** 0.06
30146 C 122.39925670835844 137.14393803744343 201.28831962033797 C 0.0 **** -0.24
30147 H 122.03845839736148 137.92838153275483 200.6234827166613 H 0.0 **** 0.06
30148 H 121.9107431544552 137.23761125904252 202.2587890897178 H 0.0 **** 0.06
30149 H 123.47786980758816 137.2409711699513 201.41263572134585 H 0.0 **** 0.06
30150 H 122.16868107464025 136.1691955546625 200.85791270422007 H 0.0 **** 0.06
30151 C 80.79343584421179 69.05002071986259 97.83367597488552 C 0.0 **** -0.24
30152 H 80.3781234918344 69.00859923357561 96.82645352816581 H 0.0 **** 0.06
30153 H 79.9889435639094 69.20449282941186 98.55245248277885 H 0.0 **** 0.06
30154 H 81.50270973552432 69.87514646217271 97.89943458828532 H 0.0 **** 0.06
30155 H 81.3047924416785 68.11324888581863 98.05384429149348 H 0.0 **** 0.06
30156 C 212.95823768469418 184.235776697835 155.98240470941823 C 0.0 **** -0.24
30157 H 212.26080035003724 183.99941920907526 156.78631107583527 H 0.0 **** 0.06
30158 H 212.8930220700769 183.47136443160116 155.20821742921004 H 0.0 **** 0.06
30159 H 213.97265979178673 184.26492609141647 156.3801436163452 H 0.0 **** 0.06
30160 H 212.70695522944158 185.2073207582992 155.5571278589926 H 0.0 **** 0.06
30161 C 85.64152627000654 39.96626128126911 113.0699032877924 C 0.0 **** -0.24
30162 H 86.1940758882689 40.86271570312641 112.78954723553493 H 0.0 **** 0.06
30163 H 85.04362668587264 40.171617959294736 113.95792911014307 H 0.0 **** 0.06
30164 H 86.34224105926366 39.1589949276688 113.28224722928665 H 0.0 **** 0.06
30165 H 84.98604934639572 39.67199983881636 112.2508420411272 H 0.0 **** 0.06
30166 C 46.25396704123614 92.02716992058771 179.98795956307055 C 0.0 **** -0.24
30167 H 45.50473828966928 92.70772362772982 179.58439537534247 H 0.0 **** 0.06
30168 H 46.14982843740991 91.05054742115931 179.51478645659114 H 0.0 **** 0.06
30169 H 46.11228406446338 91.9273794990263 181.06397161596317 H 0.0 **** 0.06
30170 H 47.24973805963745 92.42365934640719 179.78764390183534 H 0.0 **** 0.06
30171 C 113.87436157449277 37.24725320027005 111.5425806212679 C 0.0 **** -0.24
30172 H 114.62507698348456 36.706008247061675 110.96689893052941 H 0.0 **** 0.06
30173 H 113.34983603083366 37.94469969331416 110.8887920505275 H 0.0 **** 0.06
30174 H 114.3622865450918 37.79923857264093 112.34588598516369 H 0.0 **** 0.06
30175 H 113.16251605878692 36.53943867438676 111.96709881009401 H 0.0 **** 0.06
30176 C 160.88413479665488 24.984724104616305 35.236031827815054 C 0.0 **** -0.24
30177 H 160.481848045384 24.078495003976172 35.687847397114695 H 0.0 **** 0.06
30178 H 160.0836556168663 25.712804305725513 35.1078857145186 H 0.0 **** 0.06
30179 H 161.31743274444833 24.744557353591176 34.26510960793897 H 0.0 **** 0.06
30180 H 161.65518461741246 25.40245219761141 35.88475178322551 H 0.0 **** 0.06
30181 C 26.06302150672076 60.0073557114207 123.10961358706568 C 0.0 **** -0.24
30182 H 26.046636610872383 60.56913170935593 124.04370587632367 H 0.0 **** 0.06
30183 H 26.8195628527441 60.4274520971409 122.44639012150579 H 0.0 **** 0.06
30184 H 25.084669593917596 60.06895394047035 122.63156091919451 H 0.0 **** 0.06
30185 H 26.300587614273525 58.96341480352547 123.3174161004331 H 0.0 **** 0.06
30186 C 47.41493976741634 69.66242864127338 208.51581129717005 C 0.0 **** -0.24
30187 H 47.10988314875743 69.52622377099323 207.4787896912595 H 0.0 **** 0.06
30188 H 46.54173418012351 69.91155549081566 209.12040867188063 H 0.0 **** 0.06
30189 H 48.141746889548244 70.47241854441228 208.57694966600582 H 0.0 **** 0.06
30190 H 47.863282167652244 68.74133590715275 208.88714321140893 H 0.0 **** 0.06
30191 C 215.3038832028887 134.39514756326741 67.46699788555065 C 0.0 **** -0.24
30192 H 214.60111612831622 133.64771728950893 67.09797272139912 H 0.0 **** 0.06
30193 H 216.20848893376538 134.37324566710203 66.85960764140106 H 0.0 **** 0.06
30194 H 215.55710433431403 134.17392625688262 68.50463913229277 H 0.0 **** 0.06
30195 H 214.8481044471231 135.3837732395939 67.40664769369192 H 0.0 **** 0.06
30196 C 15.641893278822636 137.36249212403516 159.2541409641305 C 0.0 **** -0.24
30197 H 15.782674682814104 138.11704980579765 158.48063115324663 H 0.0 **** 0.06
30198 H 14.77627734781342 137.6235810312998 159.86356921421873 H 0.0 **** 0.06
30199 H 16.530360310821834 137.31844718017652 159.88456980521948 H 0.0 **** 0.06
30200 H 15.478260773841214 136.39089047886665 158.78779368383715 H 0.0 **** 0.06
30201 C 109.82323512130854 99.263349069992 180.84634775656474 C 0.0 **** -0.24
30202 H 109.16287006655652 100.0534840638506 181.2036582965536 H 0.0 **** 0.06
30203 H 109.22908822309263 98.39042529683393 180.5752560876674 H 0.0 **** 0.06
30204 H 110.52684261578169 98.99415842725413 181.6344886311901 H 0.0 **** 0.06
30205 H 110.37255790929434 99.6157086172151 179.97352225593548 H 0.0 **** 0.06
30206 C 209.08975736168833 133.90173470638354 99.14983239600811 C 0.0 **** -0.24
30207 H 209.36054732141014 134.95657431954731 99.18861789550066 H 0.0 **** 0.06
30208 H 209.74369695676353 133.38399736363675 98.44665374070958 H 0.0 **** 0.06
30209 H 208.0544625386157 133.80374782238272 98.82298787749313 H 0.0 **** 0.06
30210 H 209.20137390035575 133.46168066469414 100.14095263635126 H 0.0 **** 0.06
30211 C 16.107546620161003 22.74850841396764 76.21076095602018 C 0.0 **** -0.24
30212 H 16.43914471623708 22.167048410424357 75.35156303200569 H 0.0 **** 0.06
30213 H 15.141467632072334 22.373161496817147 76.5525273474313 H 0.0 **** 0.06
30214 H 16.009767658416422 23.795798967360128 75.92518976500469 H 0.0 **** 0.06
30215 H 16.837704465220014 22.657709837208742 77.01498124744603 H 0.0 **** 0.06
30216 C 2.2931197635896297 212.8429024477275 62.915334554058404 C 0.0 **** -0.24
30217 H 2.2001947428605035 211.79457244177823 62.63419001545935 H 0.0 **** 0.06
30218 H 2.4506387587064182 212.9175573048334 63.9916112685907 H 0.0 **** 0.06
30219 H 1.3805778436405944 213.37367670345105 62.64406518715913 H 0.0 **** 0.06
30220 H 3.1405399301265504 213.28497351506167 62.39165300565361 H 0.0 **** 0.06
30221 C 72.5648874810612 189.24174857421792 126.37201931672854 C 0.0 **** -0.24
30222 H 72.2255882573176 190.22567821323224 126.04698293069305 H 0.0 **** 0.06
30223 H 71.77773519682974 188.5093340859314 126.19209032873476 H 0.0 **** 0.06
30224 H 72.79806773056772 189.27184307340562 127.43643767046746 H 0.0 **** 0.06
30225 H 73.45718917643079 188.96295616303777 125.8122152446582 H 0.0 **** 0.06
30226 C 124.90884113287517 29.26638546561304 30.22092158549772 C 0.0 **** -0.24
30227 H 123.93212248393938 29.449561557001033 30.669431727025895 H 0.0 **** 0.06
30228 H 124.77911388832133 28.939618293490255 29.190026748861186 H 0.0 **** 0.06
30229 H 125.42799289368934 28.492538673105614 30.785800082600417 H 0.0 **** 0.06
30230 H 125.49451297744163 30.18505716544587 30.241044277278206 H 0.0 **** 0.06
30231 C 154.29270796957326 126.92886260948337 144.71345218313684 C 0.0 **** -0.24
30232 H 153.9895880831271 127.94074812606748 144.9813703860912 H 0.0 **** 0.06
30233 H 154.7901927715344 126.94311648709449 143.74352752559372 H 0.0 **** 0.06
30234 H 153.41253609003957 126.28711012840365 144.66143899551776 H 0.0 **** 0.06
30235 H 154.9790301851699 126.54371905159697 145.46854980419414 H 0.0 **** 0.06
30236 C 72.77500040521478 175.57303054190356 95.00128178419595 C 0.0 **** -0.24
30237 H 73.69826373740482 176.0154689888447 95.37489946433101 H 0.0 **** 0.06
30238 H 72.91708199360436 175.25594889081418 93.96711147829501 H 0.0 **** 0.06
30239 H 71.97371967729872 176.3101092423522 95.04819992028735 H 0.0 **** 0.06
30240 H 72.51068351947801 174.71016913624155 95.61251734721054 H 0.0 **** 0.06
30241 C 99.72129357515865 194.91096978751997 192.50453160279346 C 0.0 **** -0.24
30242 H 100.60391172533531 195.52459959060468 192.68874025054885 H 0.0 **** 0.06
30243 H 98.86001863745639 195.55684105689494 192.33266849401087 H 0.0 **** 0.06
30244 H 99.53324096101409 194.27706176182193 193.37189484272884 H 0.0 **** 0.06
30245 H 99.88979531134112 194.2867686006979 191.62779780290842 H 0.0 **** 0.06
30246 C 54.2685319586343 144.52269755298482 11.44417563167542 C 0.0 **** -0.24
30247 H 53.54089180526972 143.93109832271801 11.999991517867102 H 0.0 **** 0.06
30248 H 54.0495442965472 145.58282849821381 11.574086869762766 H 0.0 **** 0.06
30249 H 54.21332783532971 144.26594243244978 10.38692522303404 H 0.0 **** 0.06
30250 H 55.27033067365012 144.31008577412672 11.818001407045926 H 0.0 **** 0.06
30251 C 48.82781497017778 127.14060877164239 59.714443179143004 C 0.0 **** -0.24
30252 H 47.85095877987143 127.52205025767834 60.01226950215033 H 0.0 **** 0.06
30253 H 49.55283724525003 127.3465962600141 60.500843182326165 H 0.0 **** 0.06
30254 H 49.14306826038222 127.62790053930608 58.79186893780168 H 0.0 **** 0.06
30255 H 48.762992295958426 126.06416775128334 59.552523739519685 H 0.0 **** 0.06
30256 C 78.72959487220776 123.5414462898933 62.569183040203285 C 0.0 **** -0.24
30257 H 79.03880113687454 123.42517848155141 63.606980894422634 H 0.0 **** 0.06
30258 H 77.64187917085864 123.59737138999317 62.51705734994991 H 0.0 **** 0.06
30259 H 79.07762457055686 122.68619108670948 61.98851184982516 H 0.0 **** 0.06
30260 H 79.16110488856911 124.45610082149538 62.16152712514105 H 0.0 **** 0.06
30261 C 40.30837752064173 151.2683114286512 33.45773956817119 C 0.0 **** -0.24
30262 H 39.4993610186188 151.2758977823209 32.72616529883804 H 0.0 **** 0.06
30263 H 41.264063463122625 151.17726488652397 32.9402600368512 H 0.0 **** 0.06
30264 H 40.17813479114466 150.4215714133394 34.13279685500207 H 0.0 **** 0.06
30265 H 40.28983204425168 152.19496590059293 34.02951369774716 H 0.0 **** 0.06
30266 C 135.90831953378125 181.1176306560463 96.52179700380141 C 0.0 **** -0.24
30267 H 136.188488286885 180.45433537009055 95.70428740287248 H 0.0 **** 0.06
30268 H 135.06109226558038 181.7326850063521 96.21668676621677 H 0.0 **** 0.06
30269 H 136.7522510224153 181.76082160038266 96.77315970022185 H 0.0 **** 0.06
30270 H 135.63238850642517 180.52440470153675 97.39342890232517 H 0.0 **** 0.06
30271 C 89.14555157030544 50.284403578893034 180.7033516213067 C 0.0 **** -0.24
30272 H 88.12529014764037 50.65305763720562 180.59539812209124 H 0.0 **** 0.06
30273 H 89.47157059528219 50.41300952218904 181.7348530617707 H 0.0 **** 0.06
30274 H 89.80562306519109 50.84324908669856 180.04067640642984 H 0.0 **** 0.06
30275 H 89.17850749933386 49.22647554848055 180.4404289172574 H 0.0 **** 0.06
30276 C 210.09136532317132 182.42616454864515 26.519633949729666 C 0.0 **** -0.24
30277 H 209.75454396750575 182.575833602336 25.493733521275942 H 0.0 **** 0.06
30278 H 209.54934455335385 183.1016869934706 27.181880171458033 H 0.0 **** 0.06
30279 H 211.160173649193 182.6322772078958 26.58466845492643 H 0.0 **** 0.06
30280 H 209.90209890627972 181.39452047024193 26.81762534101847 H 0.0 **** 0.06
30281 C 147.95040548943945 64.02519153171721 159.19492224041116 C 0.0 **** -0.24
30282 H 147.39192579976003 64.04674537669217 160.13074113579626 H 0.0 **** 0.06
30283 H 147.33375875987974 64.43482010288595 158.39375283754373 H 0.0 **** 0.06
30284 H 148.21970847634714 62.99613848830221 158.95558381299566 H 0.0 **** 0.06
30285 H 148.85606768932962 64.62323245668065 159.29863905404875 H 0.0 **** 0.06
30286 C 84.21666251922592 31.761134243183847 182.93023935203206 C 0.0 **** -0.24
30287 H 85.26207911376731 32.028716880809526 183.08450475906892 H 0.0 **** 0.06
30288 H 83.93029733098636 31.991845275243065 181.90383906659275 H 0.0 **** 0.06
30289 H 83.59096641443314 32.328407130781216 183.6188901942391 H 0.0 **** 0.06
30290 H 84.08426893592265 30.69455289274549 183.11351048721582 H 0.0 **** 0.06
30291 C 121.85053107640715 163.61539209023252 59.24317523118749 C 0.0 **** -0.24
30292 H 121.96737190678851 164.27597324209228 60.10291409672709 H 0.0 **** 0.06
30293 H 120.91776686541431 163.84878791836277 58.729654586170696 H 0.0 **** 0.06
30294 H 121.82987863951524 162.57913804626628 59.58223892534927 H 0.0 **** 0.06
30295 H 122.68787721759685 163.75707073199135 58.56106328159814 H 0.0 **** 0.06
30296 C 21.476612973058423 207.55769157970684 193.48289095105054 C 0.0 **** -0.24
30297 H 21.432346125676702 206.53813068400783 193.866736199408 H 0.0 **** 0.06
30298 H 20.812749228245025 207.65124209762925 192.62341589811143 H 0.0 **** 0.06
30299 H 22.49837905010304 207.7875566694551 193.18145728627655 H 0.0 **** 0.06
30300 H 21.16215937594086 208.25222979700965 194.26161216516738 H 0.0 **** 0.06
30301 C 94.92785784750993 58.18484109795145 190.15008532675748 C 0.0 **** -0.24
30302 H 95.2378080910537 58.45401740515308 189.13989766393863 H 0.0 **** 0.06
30303 H 95.729484008685 58.421197353190365 190.85012201298815 H 0.0 **** 0.06
30304 H 94.71167990197392 57.11771118627007 190.19129174343172 H 0.0 **** 0.06
30305 H 94.03400033576327 58.748424975102324 190.41711172157164 H 0.0 **** 0.06
30306 C 134.49171243696867 52.21456791292843 209.71075975813224 C 0.0 **** -0.24
30307 H 133.5520431440708 52.766905970947306 209.7139886423721 H 0.0 **** 0.06
30308 H 134.86559786021917 52.12985456684524 210.73134904077543 H 0.0 **** 0.06
30309 H 135.22145986043245 52.74393197746349 209.09866784500073 H 0.0 **** 0.06
30310 H 134.3267058977267 51.21906145455654 209.3003430841609 H 0.0 **** 0.06
30311 C 142.17624635941496 96.4745110701923 166.14147772703313 C 0.0 **** -0.24
30312 H 142.61444169302848 95.81553595917967 166.89070318098254 H 0.0 **** 0.06
30313 H 141.21178240298616 96.83754835602497 166.49620062964289 H 0.0 **** 0.06
30314 H 142.03883966345558 95.92552012478598 165.21028791486432 H 0.0 **** 0.06
30315 H 142.84198198422467 97.32010143865057 165.96928266471076 H 0.0 **** 0.06
30316 C 8.235682061216878 196.69299254106528 113.94521064201597 C 0.0 **** -0.24
30317 H 8.6336200713191 195.72110248622593 113.65262184287896 H 0.0 **** 0.06
30318 H 9.038835058492694 197.4307684668205 113.93911924788632 H 0.0 **** 0.06
30319 H 7.813073490055146 196.62484736367674 114.94818241905791 H 0.0 **** 0.06
30320 H 7.459813022765687 196.9947116009296 113.24228961953584 H 0.0 **** 0.06
30321 C 120.73385721808997 210.78917232872715 72.61739496581419 C 0.0 **** -0.24
30322 H 120.10013433388956 211.62106629800473 72.92395957343058 H 0.0 **** 0.06
30323 H 121.21460317503663 210.35699934465066 73.49514833517213 H 0.0 **** 0.06
30324 H 121.49515191055788 211.14822639532633 71.92539807826995 H 0.0 **** 0.06
30325 H 120.12399114489541 210.03017598559575 72.12667195563404 H 0.0 **** 0.06
30326 C 13.339163091815863 210.14491647515587 208.8430098286857 C 0.0 **** -0.24
30327 H 12.76809785835411 211.0727088391066 208.80097442700912 H 0.0 **** 0.06
30328 H 12.901942038753134 209.41880142741945 208.15700338538215 H 0.0 **** 0.06
30329 H 13.313100870818971 209.74886051146578 209.85827854899696 H 0.0 **** 0.06
30330 H 14.371856370524853 210.34074615457303 208.55538949607902 H 0.0 **** 0.06
30331 C 193.99208028556365 118.80385848208876 184.19326888919107 C 0.0 **** -0.24
30332 H 193.76672608526525 119.83827297916899 184.45461021037354 H 0.0 **** 0.06
30333 H 193.06173254462848 118.2586093437031 184.0342512953331 H 0.0 **** 0.06
30334 H 194.5536508275471 118.3387303536535 185.004031803428 H 0.0 **** 0.06
30335 H 194.58809256561895 118.78214871310082 183.2799692594455 H 0.0 **** 0.06
30336 C 167.55003625874417 200.112781651414 116.558649960918 C 0.0 **** -0.24
30337 H 167.31551825007512 201.06575553961864 117.03277357993089 H 0.0 **** 0.06
30338 H 168.4905677725577 200.19879737572165 116.01481736037032 H 0.0 **** 0.06
30339 H 166.75215071460994 199.84660945374293 115.86534327769725 H 0.0 **** 0.06
30340 H 167.6405471874652 199.33985902226334 117.32203487177425 H 0.0 **** 0.06
30341 C 7.5332550755802 11.265150551765203 19.85510782283761 C 0.0 **** -0.24
30342 H 6.523188918983294 11.604250389056375 20.084635147925795 H 0.0 **** 0.06
30343 H 7.9244430785699365 10.691611277683066 20.695792540572413 H 0.0 **** 0.06
30344 H 8.173976187361859 12.127147729093224 19.673943723979264 H 0.0 **** 0.06
30345 H 7.510880912859449 10.634901105878384 18.96537236186795 H 0.0 **** 0.06
30346 C 111.70408661402796 36.54968371168319 185.52568658401668 C 0.0 **** -0.24
30347 H 112.27506850181446 37.45223005005256 185.30730405050267 H 0.0 **** 0.06
30348 H 112.38943191676317 35.72538782990706 185.7241513404699 H 0.0 **** 0.06
30349 H 111.07528265495965 36.30265582992203 184.66971114018122 H 0.0 **** 0.06
30350 H 111.07659955118656 36.718721099200536 186.40061485498813 H 0.0 **** 0.06
30351 C 20.16728946316269 128.87382119342402 209.6281009862537 C 0.0 **** -0.24
30352 H 19.251527810335688 129.4345790752471 209.43920593385087 H 0.0 **** 0.06
30353 H 19.94274804096557 128.01201238067802 210.25617490571437 H 0.0 **** 0.06
30354 H 20.888203654082076 129.51574899247407 210.1328638423499 H 0.0 **** 0.06
30355 H 20.58519212158194 128.53304274481195 208.68006270737084 H 0.0 **** 0.06
30356 C 142.2115941855899 156.18255891553525 146.85720001337177 C 0.0 **** -0.24
30357 H 142.1246646808553 155.22532049296296 146.34183313112737 H 0.0 **** 0.06
30358 H 141.93679936247776 156.0565612856576 147.90504044033668 H 0.0 **** 0.06
30359 H 141.54400873643425 156.90756345201805 146.39061857135954 H 0.0 **** 0.06
30360 H 143.23978378681778 156.53869737116452 146.7907042498739 H 0.0 **** 0.06
30361 C 72.93358963312494 136.46752237994173 106.25066678248533 C 0.0 **** -0.24
30362 H 73.64928501468768 136.46624306245695 105.42826321444403 H 0.0 **** 0.06
30363 H 71.96478484645138 136.1236237623283 105.88923054700308 H 0.0 **** 0.06
30364 H 72.83746265805382 137.47903945448581 106.64493185193407 H 0.0 **** 0.06
30365 H 73.28536615966556 135.80244153909587 107.03883990655692 H 0.0 **** 0.06
30366 C 197.75424845048147 161.75381781602147 47.6520862347935 C 0.0 **** -0.24
30367 H 197.96949046715795 162.24295542930696 46.70143675848357 H 0.0 **** 0.06
30368 H 197.88946332989644 160.67728480816754 47.546219519869055 H 0.0 **** 0.06
30369 H 196.72567332077838 161.96414380999772 47.94318981749126 H 0.0 **** 0.06
30370 H 198.433426694802 162.1325386692231 48.41642685157615 H 0.0 **** 0.06
30371 C 127.48013944489031 139.27848612604424 104.16068820103935 C 0.0 **** -0.24
30372 H 126.86019604746349 139.83269276150043 104.8658600500983 H 0.0 **** 0.06
30373 H 128.51087685870698 139.26919919521652 104.51351146342746 H 0.0 **** 0.06
30374 H 127.43485442806696 139.75871641390336 103.1829355307848 H 0.0 **** 0.06
30375 H 127.11293350823053 138.25548048542606 104.08116845975074 H 0.0 **** 0.06
30376 C 176.92682141532424 201.93039972820253 130.53377064185077 C 0.0 **** -0.24
30377 H 176.7601977686445 200.9141810635813 130.8913924071553 H 0.0 **** 0.06
30378 H 176.79968645404688 201.95924361234123 129.4510745221226 H 0.0 **** 0.06
30379 H 177.9385089417593 202.24413157441992 130.7896569497487 H 0.0 **** 0.06
30380 H 176.20769648709313 202.60231251054708 131.0021995969807 H 0.0 **** 0.06
30381 C 194.02497321371877 30.499626826885972 187.74796974385904 C 0.0 **** -0.24
30382 H 193.76675851053824 31.554099538248977 187.84826238530334 H 0.0 **** 0.06
30383 H 194.38083222157667 30.119632755970116 188.70657135064792 H 0.0 **** 0.06
30384 H 194.80919652572666 30.387421461528376 186.99870016301318 H 0.0 **** 0.06
30385 H 193.14405879391757 29.938398147477116 187.43836149179552 H 0.0 **** 0.06
30386 C 166.16104255320397 114.48395508068985 151.24277350454224 C 0.0 **** -0.24
30387 H 166.56687814666813 113.90986896284183 150.40946699024374 H 0.0 **** 0.06
30388 H 165.0754482447178 114.53251439354234 151.1546194555205 H 0.0 **** 0.06
30389 H 166.57231275819987 115.49278833021127 151.2232436382048 H 0.0 **** 0.06
30390 H 166.42865319765895 113.99988215744732 152.18185554557078 H 0.0 **** 0.06
30391 C 1.7236201440431387 12.961570302828846 28.855070539649503 C 0.0 **** -0.24
30392 H 1.1127867466484531 13.847672918607557 28.679474785147733 H 0.0 **** 0.06
30393 H 2.3040718890695757 12.7377233728282 27.960459200731293 H 0.0 **** 0.06
30394 H 1.076459488435944 12.11582468974116 29.090484227652937 H 0.0 **** 0.06
30395 H 2.398662086693605 13.145359343736857 29.691494545212294 H 0.0 **** 0.06
30396 C 128.47703127195985 184.80105972370532 42.93919250209731 C 0.0 **** -0.24
30397 H 128.41203977874733 185.3176818747275 41.98174391813666 H 0.0 **** 0.06
30398 H 129.40748813793857 185.07450224973985 43.43712356978037 H 0.0 **** 0.06
30399 H 128.45769868508813 183.7241658717491 42.771779780531716 H 0.0 **** 0.06
30400 H 127.63137941183415 185.08696116970523 43.56474140712734 H 0.0 **** 0.06
30401 C 109.68361762795455 215.06896179342667 70.60432688819704 C 0.0 **** -0.24
30402 H 108.82318316923029 215.7098347028878 70.41658088288939 H 0.0 **** 0.06
30403 H 110.55408795788414 215.68609269623065 70.82930912870522 H 0.0 **** 0.06
30404 H 109.88553087540429 214.46361099403146 69.71964580614038 H 0.0 **** 0.06
30405 H 109.47197937386885 214.41531477606304 71.4497929973166 H 0.0 **** 0.06
30406 C 183.4376711707451 205.40368229280574 100.32683290013067 C 0.0 **** -0.24
30407 H 184.2037280678081 205.42740869190675 99.5517438560599 H 0.0 **** 0.06
30408 H 182.54896934529665 204.90214914407727 99.94281374096558 H 0.0 **** 0.06
30409 H 183.18409271552173 206.42275551046401 100.61777768851697 H 0.0 **** 0.06
30410 H 183.81493446003356 204.8605473305659 101.19434254872805 H 0.0 **** 0.06
30411 C 158.62227487078297 155.28676677202185 43.40562693676728 C 0.0 **** -0.24
30412 H 159.57580949869015 155.22399795258525 42.88261938264823 H 0.0 **** 0.06
30413 H 158.29171013690154 156.32571951143575 43.43347153832863 H 0.0 **** 0.06
30414 H 158.74197586182086 154.9156307307777 44.42363423216952 H 0.0 **** 0.06
30415 H 157.88057658058523 154.68247759316256 42.883474307466344 H 0.0 **** 0.06
30416 C 88.69198794437057 82.67834320737067 103.5971629878206 C 0.0 **** -0.24
30417 H 88.5702243574404 82.21377086527916 104.57492383805247 H 0.0 **** 0.06
30418 H 89.38468321427005 82.08675528506059 102.99815452496814 H 0.0 **** 0.06
30419 H 89.08861177986579 83.68672792625263 103.72141657408922 H 0.0 **** 0.06
30420 H 87.72649580950383 82.72679895728673 103.09468602726427 H 0.0 **** 0.06
30421 C 43.351252234410936 185.6894331062398 106.79034336034255 C 0.0 **** -0.24
30422 H 43.76880491787938 186.4914267654658 106.18055070247311 H 0.0 **** 0.06
30423 H 43.2195511756716 186.04138957737928 107.81322292315457 H 0.0 **** 0.06
30424 H 44.029738473447935 184.8368946845165 106.78261130282038 H 0.0 **** 0.06
30425 H 42.38554312944092 185.38889833554742 106.3822772683958 H 0.0 **** 0.06
30426 C 207.00553020080372 178.60671308137375 130.04922268864505 C 0.0 **** -0.24
30427 H 205.98506518040716 178.2355745265401 130.14363375945408 H 0.0 **** 0.06
30428 H 206.98926316483224 179.69359911780174 129.9671844802246 H 0.0 **** 0.06
30429 H 207.4657271836544 178.18151514559415 129.15750379636302 H 0.0 **** 0.06
30430 H 207.5807340955243 178.31621079670094 130.9280935729886 H 0.0 **** 0.06
30431 C 18.748436853245153 135.0691912311484 17.018520369221534 C 0.0 **** -0.24
30432 H 19.307528268891815 134.24222227979186 17.45673069047919 H 0.0 **** 0.06
30433 H 19.32084680736267 135.99044750947928 17.122730905498884 H 0.0 **** 0.06
30434 H 17.793248906643697 135.17411277789455 17.533005152375154 H 0.0 **** 0.06
30435 H 18.570861574130333 134.86788519443036 15.9617133622545 H 0.0 **** 0.06
30436 C 214.95359233101436 173.87249606300827 200.56186682458986 C 0.0 **** -0.24
30437 H 215.05073598554583 173.2055393622403 201.41877931383334 H 0.0 **** 0.06
30438 H 215.51547548476805 173.46549714488833 199.7206038719549 H 0.0 **** 0.06
30439 H 215.34544240828555 174.85557601158973 200.8200265493699 H 0.0 **** 0.06
30440 H 213.90207061951602 173.96023782620358 200.28718405752758 H 0.0 **** 0.06
30441 C 108.46488580262597 11.177659618088285 115.58787278148151 C 0.0 **** -0.24
30442 H 108.33519804674724 11.971830195444454 116.32268793247727 H 0.0 **** 0.06
30443 H 109.52340580770068 10.9307471590879 115.5038502864096 H 0.0 **** 0.06
30444 H 108.09251044918368 11.514309557908177 114.61966641238365 H 0.0 **** 0.06
30445 H 107.90885034281605 10.295867752236745 115.90412708813233 H 0.0 **** 0.06
30446 C 3.0631987295160457 138.35045348793517 0.6229080183564903 C 0.0 **** -0.24
30447 H 3.741099122307361 137.5346651203845 0.8749745608940174 H 0.0 **** 0.06
30448 H 2.0727628025435365 137.94712232537756 0.41133819632455726 H 0.0 **** 0.06
30449 H 3.438380325421633 138.8738374970136 -0.2573153108219941 H 0.0 **** 0.06
30450 H 3.0025504635378866 139.044415192643 1.4600149657734534 H 0.0 **** 0.06
30451 C 140.82204856467672 69.74267636120055 134.25058208997694 C 0.0 **** -0.24
30452 H 140.08647546163297 70.51653138045714 134.47013107363898 H 0.0 **** 0.06
30453 H 141.7531275739728 69.96881677334778 134.77155958680248 H 0.0 **** 0.06
30454 H 141.0037281379578 69.70839768316978 133.17676989634896 H 0.0 **** 0.06
30455 H 140.44326125325813 68.77662208579159 134.58638183693324 H 0.0 **** 0.06
30456 C 58.0214575701347 180.6138610667462 96.03612513137288 C 0.0 **** -0.24
30457 H 57.56056405117181 180.527348354874 97.01979115265031 H 0.0 **** 0.06
30458 H 57.276243127619466 180.40900077718794 95.2672572367896 H 0.0 **** 0.06
30459 H 58.83744143542458 179.8957673807118 95.9524236799948 H 0.0 **** 0.06
30460 H 58.4102410595647 181.622939503295 95.90480027051002 H 0.0 **** 0.06
30461 C 122.1802499078879 122.76233245060438 172.14007024693768 C 0.0 **** -0.24
30462 H 122.32565265920861 123.67164339504093 171.55727716616786 H 0.0 **** 0.06
30463 H 121.11395430926699 122.58769792329547 172.2793706213535 H 0.0 **** 0.06
30464 H 122.66119854717981 122.87370390990166 173.11231453509356 H 0.0 **** 0.06
30465 H 122.62153928033625 121.91728290709871 171.6108783074878 H 0.0 **** 0.06
30466 C 215.86467649520822 169.83064316952374 117.1987120836149 C 0.0 **** -0.24
30467 H 214.9551320325363 170.04253733992022 117.76026694083198 H 0.0 **** 0.06
30468 H 216.45262637852727 169.08110773778748 117.72921064322254 H 0.0 **** 0.06
30469 H 216.44883885784014 170.74448793886734 117.09513992979937 H 0.0 **** 0.06
30470 H 215.60132196081395 169.45328605121708 116.21045496308146 H 0.0 **** 0.06
30471 C 54.41584088425407 202.21400220058086 183.11766815125063 C 0.0 **** -0.24
30472 H 55.07814490632316 203.04269732541627 182.86475328375806 H 0.0 **** 0.06
30473 H 54.07536691388685 201.7299065289743 182.2024577988486 H 0.0 **** 0.06
30474 H 53.55607491179306 202.59263827140148 183.67062143935192 H 0.0 **** 0.06
30475 H 54.954274913737706 201.49313517008235 183.73246295217666 H 0.0 **** 0.06
30476 C 215.10476768444613 39.853582756517255 66.49962723099429 C 0.0 **** -0.24
30477 H 214.7162809794091 39.600031510621974 65.51279391252706 H 0.0 **** 0.06
30478 H 216.1577572782971 40.12275945890255 66.41662147628398 H 0.0 **** 0.06
30479 H 214.99882999920888 38.99535561423775 67.1621440172562 H 0.0 **** 0.06
30480 H 214.54397108359183 40.69671544277277 66.90324287161928 H 0.0 **** 0.06
30481 C 35.458850503163035 49.571398258046244 152.89843697947077 C 0.0 **** -0.24
30482 H 35.99302715842785 49.601710640075964 151.9487414500888 H 0.0 **** 0.06
30483 H 35.050381713454584 48.57269200301626 153.05269066615983 H 0.0 **** 0.06
30484 H 34.647098304342336 50.29835607776485 152.8818289799616 H 0.0 **** 0.06
30485 H 36.146741793508085 49.812848498814446 153.70922641181835 H 0.0 **** 0.06
30486 C 6.327979517567201 127.14037451226766 75.39501566350094 C 0.0 **** -0.24
30487 H 5.658350752928811 127.33952468719586 74.55896623668218 H 0.0 **** 0.06
30488 H 6.76236172002973 126.14691108900836 75.2836484117035 H 0.0 **** 0.06
30489 H 5.768121284961467 127.19015197546314 76.32920574541441 H 0.0 **** 0.06
30490 H 7.12373043076542 127.88567312186721 75.40826769203375 H 0.0 **** 0.06
30491 C 67.14886626000742 88.03306535162898 189.05583643019315 C 0.0 **** -0.24
30492 H 66.96229729483213 88.36375651239416 188.03385916892222 H 0.0 **** 0.06
30493 H 68.01188985132819 88.56555011367936 189.45757069986044 H 0.0 **** 0.06
30494 H 67.34864505836623 86.96136606724889 189.0599859414787 H 0.0 **** 0.06
30495 H 66.27347145435192 88.2425991336637 189.67080038860084 H 0.0 **** 0.06
30496 C 48.28952743820474 62.42534341485492 2.115041813144444 C 0.0 **** -0.24
30497 H 49.08646223208149 63.05089546801736 1.712429460152805 H 0.0 **** 0.06
30498 H 48.71793547870203 61.67667304669504 2.781192968798365 H 0.0 **** 0.06
30499 H 47.769390217597845 61.92937505485531 1.2959070353313393 H 0.0 **** 0.06
30500 H 47.58676654677964 63.04618643207607 2.6696688898742877 H 0.0 **** 0.06
30501 C 194.56522116212585 79.38430716222354 26.953873963374832 C 0.0 **** -0.24
30502 H 193.5010241125185 79.17634811520122 27.0640002882501 H 0.0 **** 0.06
30503 H 195.11481430501723 78.44437649234038 26.89816167894702 H 0.0 **** 0.06
30504 H 194.91331358256298 79.95926819840452 27.812166230409332 H 0.0 **** 0.06
30505 H 194.73075201072047 79.95628899151399 26.040791018147587 H 0.0 **** 0.06
30506 C 152.66221667222618 30.012862716708938 112.00520721568505 C 0.0 **** -0.24
30507 H 152.64202153431268 30.266230278452454 110.94478268339547 H 0.0 **** 0.06
30508 H 152.70286025322872 30.92709027076924 112.59667082543923 H 0.0 **** 0.06
30509 H 153.5419385515728 29.40394107017498 112.21540472567374 H 0.0 **** 0.06
30510 H 151.76279457076737 29.452401542685678 112.26076992293925 H 0.0 **** 0.06
30511 C 125.21075637139877 89.39929740655988 87.67327374647397 C 0.0 **** -0.24
30512 H 124.65652760565938 90.17924309292717 87.15206426655101 H 0.0 **** 0.06
30513 H 124.94934917800676 89.41386241631211 88.73110561737798 H 0.0 **** 0.06
30514 H 126.2803809888462 89.57626084981733 87.56048963996659 H 0.0 **** 0.06
30515 H 124.95626242665965 88.42850979910918 87.24891260781988 H 0.0 **** 0.06
30516 C 81.47629093510017 187.31933217203334 74.0166542427864 C 0.0 **** -0.24
30517 H 82.01003727148537 187.4618968442618 73.07695679060366 H 0.0 **** 0.06
30518 H 82.18289801472321 187.3554462616298 74.8453105829516 H 0.0 **** 0.06
30519 H 80.97564362981996 186.35125170564405 74.00632854093102 H 0.0 **** 0.06
30520 H 80.73529445656936 188.1097172390837 74.13618583164647 H 0.0 **** 0.06
30521 C 91.56632172958088 33.20389466447929 151.00507689153625 C 0.0 **** -0.24
30522 H 91.45031079895166 33.96087134718425 150.2297080147224 H 0.0 **** 0.06
30523 H 91.85546888514075 32.25683311930186 150.54757331973974 H 0.0 **** 0.06
30524 H 90.62345511424867 33.07857018436499 151.53512633788426 H 0.0 **** 0.06
30525 H 92.33872885023779 33.519044526032985 151.70657025577498 H 0.0 **** 0.06
30526 C 33.684049731130216 81.26538570118436 126.85228342733383 C 0.0 **** -0.24
30527 H 33.459120133844124 80.22930028659863 127.10321530750089 H 0.0 **** 0.06
30528 H 32.84498047259876 81.69828483979597 126.3063912452513 H 0.0 **** 0.06
30529 H 34.57942460766429 81.30208885209817 126.23099214151084 H 0.0 **** 0.06
30530 H 33.85408514232205 81.83221610906259 127.76716121653966 H 0.0 **** 0.06
30531 C 136.55307815509815 44.84141044234059 88.07981361167583 C 0.0 **** -0.24
30532 H 137.02832706270476 45.587973383579026 87.4432388768202 H 0.0 **** 0.06
30533 H 136.78406532712063 45.05447989596024 89.12352117156053 H 0.0 **** 0.06
30534 H 136.92570964851058 43.8508271949766 87.81931268158792 H 0.0 **** 0.06
30535 H 135.4736964192283 44.87360479625846 87.93274654467467 H 0.0 **** 0.06
30536 C 77.91742768607759 197.43579624810457 130.15828962313225 C 0.0 **** -0.24
30537 H 78.65499445590876 196.8700641320166 129.58811457334173 H 0.0 **** 0.06
30538 H 77.22555264250929 197.92611546484068 129.47281304340322 H 0.0 **** 0.06
30539 H 78.42523726968153 198.1873852100562 130.76204833471547 H 0.0 **** 0.06
30540 H 77.3658298199893 196.75847414547889 130.80993039273034 H 0.0 **** 0.06
30541 C 10.21532570042234 59.17898941057817 110.23327523206841 C 0.0 **** -0.24
30542 H 10.773903648480541 58.56082620045471 109.53105372584169 H 0.0 **** 0.06
30543 H 10.203956039045522 60.21000986223105 109.87983967241111 H 0.0 **** 0.06
30544 H 10.69097031432517 59.13564809884663 111.21330118912194 H 0.0 **** 0.06
30545 H 9.19376674858404 58.80891924075124 110.30877014790882 H 0.0 **** 0.06
30546 C 101.47102097664676 148.98889949409875 150.9723818396326 C 0.0 **** -0.24
30547 H 101.11880210467477 148.6617393629332 151.95137227645478 H 0.0 **** 0.06
30548 H 102.5548337057282 148.88619238227767 150.9245243038847 H 0.0 **** 0.06
30549 H 101.19620550038404 150.03170692914637 150.81722312683883 H 0.0 **** 0.06
30550 H 101.01222415488202 148.37329685987265 150.197763202278 H 0.0 **** 0.06
30551 C 113.05898809703739 157.53731631488148 8.126716541142798 C 0.0 **** -0.24
30552 H 112.03755006560205 157.52540718910444 7.745887623914655 H 0.0 **** 0.06
30553 H 113.70826428809606 158.03755366232838 7.407994644344399 H 0.0 **** 0.06
30554 H 113.40224239908535 156.51405243268744 8.276358227616015 H 0.0 **** 0.06
30555 H 113.08712715691537 158.07252192082728 9.07546955268208 H 0.0 **** 0.06
30556 C 190.50471143331265 40.58940910025922 7.15073937496939 C 0.0 **** -0.24
30557 H 190.9259036113623 40.1944679858878 8.075414348740821 H 0.0 **** 0.06
30558 H 189.95841766408057 39.80036776528624 6.634866318987747 H 0.0 **** 0.06
30559 H 191.3088731870373 40.953800385050016 6.512005478252036 H 0.0 **** 0.06
30560 H 189.8255165749677 41.41057000497358 7.383224376695182 H 0.0 **** 0.06
30561 C 35.83984364636501 138.96902782243052 98.60468698187806 C 0.0 **** -0.24
30562 H 35.40604650527092 139.92677714190438 98.31969506261073 H 0.0 **** 0.06
30563 H 36.63630739385286 139.1329393677886 99.33073976611693 H 0.0 **** 0.06
30564 H 36.24935035484205 138.4781820015504 97.72137288967086 H 0.0 **** 0.06
30565 H 35.06881479720266 138.33826941265175 99.0461113395762 H 0.0 **** 0.06
30566 C 212.30528549574836 73.34554056379665 193.25548382403244 C 0.0 **** -0.24
30567 H 213.21796807739258 73.78490871834197 192.85430898996566 H 0.0 **** 0.06
30568 H 211.87676857313357 74.01544869820833 194.00126360615644 H 0.0 **** 0.06
30569 H 212.53637554594923 72.38642942771185 193.7181990087056 H 0.0 **** 0.06
30570 H 211.5888332124561 73.19545094657786 192.44741366545134 H 0.0 **** 0.06
30571 C 59.354772703563114 0.9338419768254766 37.47593145874046 C 0.0 **** -0.24
30572 H 59.1219351652133 0.11931168564069594 38.161238111885694 H 0.0 **** 0.06
30573 H 59.453789773826486 1.8637721686265536 38.03615873438031 H 0.0 **** 0.06
30574 H 58.551739583792695 1.0341149688840687 36.74558751514374 H 0.0 **** 0.06
30575 H 60.29032989219988 0.7179367850629887 36.960226284175604 H 0.0 **** 0.06
30576 C 77.35080380098269 209.1674661107115 79.27218098565696 C 0.0 **** -0.24
30577 H 77.60622596756578 208.93540488215748 80.3066544066589 H 0.0 **** 0.06
30578 H 76.39930742204955 208.69933555845046 79.01911464871377 H 0.0 **** 0.06
30579 H 78.1304671094119 208.78825746450508 78.61152444444393 H 0.0 **** 0.06
30580 H 77.26648301045064 210.24763326290608 79.15339941220692 H 0.0 **** 0.06
30581 C 19.458421968337348 83.76544051094491 211.980050257188 C 0.0 **** -0.24
30582 H 19.915723761407833 82.93157719970431 212.51402049032475 H 0.0 **** 0.06
30583 H 20.036566258733757 83.98131571962598 211.08156252163477 H 0.0 **** 0.06
30584 H 19.445568485326262 84.6446082650027 212.62441194774806 H 0.0 **** 0.06
30585 H 18.437576451946242 83.50342000545443 211.702704234636 H 0.0 **** 0.06
30586 C 73.67173637513731 13.597433383986868 138.55516913132817 C 0.0 **** -0.24
30587 H 73.89200838627629 14.64483835853423 138.76294595392022 H 0.0 **** 0.06
30588 H 74.16671081437885 13.29842783905778 137.6310630065252 H 0.0 **** 0.06
30589 H 72.5954705784463 13.467012697898099 138.4498340079374 H 0.0 **** 0.06
30590 H 74.03391129228835 12.979758516689827 139.37759009454652 H 0.0 **** 0.06
30591 C 176.92869933885004 35.556739382749186 143.40716786666593 C 0.0 **** -0.24
30592 H 177.58647298101994 34.713418253874295 143.6143692751092 H 0.0 **** 0.06
30593 H 176.48789624645391 35.91039742034468 144.33978825074445 H 0.0 **** 0.06
30594 H 176.13629602545677 35.24110869900281 142.7275213263094 H 0.0 **** 0.06
30595 H 177.50172178422332 36.361809910865475 142.94845571475707 H 0.0 **** 0.06
30596 C 8.324450666591588 194.97777951777803 164.7795639551532 C 0.0 **** -0.24
30597 H 8.143016800274097 195.91925992233809 165.29775072830984 H 0.0 **** 0.06
30598 H 7.3927138371776095 194.6184005296878 164.342597866779 H 0.0 **** 0.06
30599 H 8.702290888497942 194.24102877426117 165.48810134768382 H 0.0 **** 0.06
30600 H 9.059674374432177 195.13373940804632 163.990326511075 H 0.0 **** 0.06
30601 C 84.82246069447422 209.80708869093817 18.09136071522272 C 0.0 **** -0.24
30602 H 85.75565702551711 209.50270741244339 17.617606792768413 H 0.0 **** 0.06
30603 H 84.5020410539791 210.7650202400151 17.682074100376155 H 0.0 **** 0.06
30604 H 84.97600045761288 209.90378296233854 19.166641568526515 H 0.0 **** 0.06
30605 H 84.05590541832441 209.05610255123503 17.90066734702043 H 0.0 **** 0.06
30606 C 92.98494344489147 154.97496845160975 146.81500151891777 C 0.0 **** -0.24
30607 H 92.39115256920273 155.4261524978698 147.60997855613255 H 0.0 **** 0.06
30608 H 93.10741213875265 153.91052076056786 147.01305114560182 H 0.0 **** 0.06
30609 H 93.9627730509949 155.4540291840051 146.77566708844608 H 0.0 **** 0.06
30610 H 92.47562606755356 155.11054770778003 145.86020927275655 H 0.0 **** 0.06
30611 C 182.80445116063734 42.68292768078746 138.64724686193676 C 0.0 **** -0.24
30612 H 183.2538468547902 41.99760414130452 137.92945492011614 H 0.0 **** 0.06
30613 H 182.49211056980863 42.128588533287655 139.53232347067683 H 0.0 **** 0.06
30614 H 181.93713502670695 43.16460115888441 138.19552180798576 H 0.0 **** 0.06
30615 H 183.5338512554494 43.441320372164455 138.93137739676695 H 0.0 **** 0.06
30616 C 34.50236532443965 87.83822772417147 148.4186757247528 C 0.0 **** -0.24
30617 H 35.29481032755474 88.36076285080856 148.9546039823673 H 0.0 **** 0.06
30618 H 34.550916866168734 88.09196571208201 147.36040879545084 H 0.0 **** 0.06
30619 H 33.53412991672717 88.13610603821724 148.82133543972782 H 0.0 **** 0.06
30620 H 34.63058971296549 86.7627731444847 148.54172080292602 H 0.0 **** 0.06
30621 C 135.34651749475626 10.12113308379881 118.93270350074114 C 0.0 **** -0.24
30622 H 135.81417074157662 9.630726110864828 119.78528519433875 H 0.0 **** 0.06
30623 H 136.08851794321015 10.27550493377251 118.14904298103072 H 0.0 **** 0.06
30624 H 134.94187625476064 11.084357421618677 119.24519909591761 H 0.0 **** 0.06
30625 H 134.53928147793675 9.495947482949305 118.55108312049812 H 0.0 **** 0.06
30626 C 116.16545048943975 118.49419564452835 187.9279939104523 C 0.0 **** -0.24
30627 H 115.778369511175 119.43306089323703 187.53199580705913 H 0.0 **** 0.06
30628 H 116.722790588933 117.97314295238941 187.1487672022498 H 0.0 **** 0.06
30629 H 115.33510774778019 117.87063831844542 188.26026388981253 H 0.0 **** 0.06
30630 H 116.82534857834291 118.70081935706638 188.77050936339802 H 0.0 **** 0.06
30631 C 30.778147489840705 80.29976608452046 181.07634858502595 C 0.0 **** -0.24
30632 H 30.5523284574262 79.23641446329907 180.98718436953845 H 0.0 **** 0.06
30633 H 31.39242153971543 80.46651714440941 181.96165792420808 H 0.0 **** 0.06
30634 H 29.849510306389675 80.86223151830063 181.16716012047135 H 0.0 **** 0.06
30635 H 31.319398958293675 80.63135885678952 180.1900189485718 H 0.0 **** 0.06
30636 C 126.72793006102837 108.02918995133187 41.38900599167839 C 0.0 **** -0.24
30637 H 127.53909489966672 107.62090782232436 41.991834693762854 H 0.0 **** 0.06
30638 H 126.10359090306811 108.67235213280138 42.00994010759659 H 0.0 **** 0.06
30639 H 126.12551652591385 107.21194037839648 40.99146452544235 H 0.0 **** 0.06
30640 H 127.14309736530483 108.60862719190855 40.56507048974396 H 0.0 **** 0.06
30641 C 135.40882806228387 75.62022384931068 45.11703470372032 C 0.0 **** -0.24
30642 H 134.97704717448494 75.96631148783077 46.056970220106905 H 0.0 **** 0.06
30643 H 134.7529158431987 75.89938019687837 44.29282112670927 H 0.0 **** 0.06
30644 H 135.51756391031142 74.53680137374137 45.14464561502888 H 0.0 **** 0.06
30645 H 136.38648198907265 76.08044645630041 44.97617634541274 H 0.0 **** 0.06
30646 C 93.99438477139229 208.9474414198558 52.91667340269885 C 0.0 **** -0.24
30647 H 93.65297550586372 207.91637682001993 53.00767141477138 H 0.0 **** 0.06
30648 H 93.39895913274772 209.5866935284099 53.56902468687878 H 0.0 **** 0.06
30649 H 93.88282356052598 209.27684288989354 51.8840844772393 H 0.0 **** 0.06
30650 H 95.043842050518 209.0089797559318 53.20624827104058 H 0.0 **** 0.06
30651 C 23.15467865114566 182.95870073579817 99.08004910691163 C 0.0 **** -0.24
30652 H 22.14756590324302 183.0980435819513 99.47258014430436 H 0.0 **** 0.06
30653 H 23.83005571822426 183.67585390783933 99.54678916831615 H 0.0 **** 0.06
30654 H 23.148376407964463 183.11356661039144 98.00153254962557 H 0.0 **** 0.06
30655 H 23.491640939734538 181.9447377301497 99.29957269473682 H 0.0 **** 0.06
30656 C 184.72131448647758 26.658893419544782 6.39063163782734 C 0.0 **** -0.24
30657 H 184.07145562534322 26.30467037276452 5.590442516283531 H 0.0 **** 0.06
30658 H 184.2613727680435 27.51888551608259 6.878082514348847 H 0.0 **** 0.06
30659 H 185.68517960785823 26.95037429322865 5.972679398294602 H 0.0 **** 0.06
30660 H 184.86685869307388 25.862415921062933 7.119822011479783 H 0.0 **** 0.06
30661 C 80.21204756439505 8.87941961474327 164.513508038061 C 0.0 **** -0.24
30662 H 80.73776586757657 9.71100730868173 164.9825339502153 H 0.0 **** 0.06
30663 H 79.58864238078513 9.256753825473226 163.70158560135053 H 0.0 **** 0.06
30664 H 79.58542544289554 8.381845275623348 165.25247935025584 H 0.0 **** 0.06
30665 H 80.93701341360253 8.169597168198166 164.11456223141937 H 0.0 **** 0.06
30666 C 45.92765990753088 86.25228122002726 109.81726924407081 C 0.0 **** -0.24
30667 H 46.41029133265607 87.21379418627147 109.64243830214718 H 0.0 **** 0.06
30668 H 46.68751802399987 85.47601182715623 109.910605298995 H 0.0 **** 0.06
30669 H 45.26927078313548 86.01864754115259 108.98096774893634 H 0.0 **** 0.06
30670 H 45.34446856520782 86.30126420746423 110.7370206603797 H 0.0 **** 0.06
30671 C 179.07912738676828 120.7148403086067 23.552609259984848 C 0.0 **** -0.24
30672 H 180.0092322912309 121.12606084173096 23.944308977139684 H 0.0 **** 0.06
30673 H 178.2952735967403 121.4708420125839 23.61089148242945 H 0.0 **** 0.06
30674 H 178.78953592538468 119.8446326896976 24.14265810723498 H 0.0 **** 0.06
30675 H 179.2224865412707 120.41834021607 22.5138956456841 H 0.0 **** 0.06
30676 C 25.939445812650916 99.16424400052439 64.03704701967763 C 0.0 **** -0.24
30677 H 25.8934377533552 100.20470272024313 63.71367252003637 H 0.0 **** 0.06
30678 H 26.329510376460888 99.11783203188436 65.0539170731897 H 0.0 **** 0.06
30679 H 26.59607029924595 98.60646547060504 63.37056633417899 H 0.0 **** 0.06
30680 H 24.939661008961423 98.7307315790983 64.0108084041496 H 0.0 **** 0.06
30681 C 92.68572382628457 184.31480366541678 206.07644480416025 C 0.0 **** -0.24
30682 H 92.36680182943263 184.61495810482128 207.0747930479517 H 0.0 **** 0.06
30683 H 93.6775055328369 184.72108805060026 205.87475890198695 H 0.0 **** 0.06
30684 H 91.97884097487349 184.69735757088154 205.33934284269088 H 0.0 **** 0.06
30685 H 92.71926064714017 183.22672372711156 206.01784896387545 H 0.0 **** 0.06
30686 C 35.110767298969336 170.7916373426034 37.45027776203858 C 0.0 **** -0.24
30687 H 34.729457573001326 171.52564444849696 36.74044355831151 H 0.0 **** 0.06
30688 H 35.68052410009648 170.03050115078412 36.915414177182925 H 0.0 **** 0.06
30689 H 34.2757424308528 170.32173714292261 37.970136793333296 H 0.0 **** 0.06
30690 H 35.756492268590705 171.28791753352374 38.17380823787548 H 0.0 **** 0.06
30691 C 95.45728805404256 6.159816689462218 145.22526315962057 C 0.0 **** -0.24
30692 H 95.81959678381084 6.936511541648571 144.551251557611 H 0.0 **** 0.06
30693 H 94.6827480462588 5.57832919418712 144.7248900876961 H 0.0 **** 0.06
30694 H 95.043054600291 6.621893068897464 146.12116560741572 H 0.0 **** 0.06
30695 H 96.28331023772164 5.50522354666677 145.50185725335717 H 0.0 **** 0.06
30696 C 55.511278481715294 215.34978800289082 124.7266629567909 C 0.0 **** -0.24
30697 H 55.3840676746737 214.3221387651458 125.0686799305725 H 0.0 **** 0.06
30698 H 55.31654416014635 216.03436045002923 125.5519533528759 H 0.0 **** 0.06
30699 H 54.81383752702419 215.55093403423572 123.91436651962096 H 0.0 **** 0.06
30700 H 56.532553622766784 215.48905036557073 124.37109407522627 H 0.0 **** 0.06
30701 C 141.54754824091384 59.215418617572766 74.69496780760106 C 0.0 **** -0.24
30702 H 140.81418778255028 59.98300430946199 74.94436467816759 H 0.0 **** 0.06
30703 H 141.19152877045718 58.24718213816611 75.04497690768086 H 0.0 **** 0.06
30704 H 142.49638546489905 59.45124540996457 75.17705782686032 H 0.0 **** 0.06
30705 H 141.68642009518425 59.184182511406206 73.61429993519435 H 0.0 **** 0.06
30706 C 124.70603448166064 121.1535763577885 27.74995437398347 C 0.0 **** -0.24
30707 H 125.2906637694385 121.5599494485524 28.574839597003063 H 0.0 **** 0.06
30708 H 125.37231144634349 120.8976634531939 26.92549834367577 H 0.0 **** 0.06
30709 H 123.98350635236947 121.89849865917847 27.41533814923953 H 0.0 **** 0.06
30710 H 124.17918395037894 120.25985260107984 28.083184757343048 H 0.0 **** 0.06
30711 C 141.20641761527787 90.50153034161379 214.59272378757126 C 0.0 **** -0.24
30712 H 141.2645288977106 90.97388622587907 213.61199694596985 H 0.0 **** 0.06
30713 H 142.21250353855686 90.25597111020126 214.9365609002837 H 0.0 **** 0.06
30714 H 140.61395201183302 89.58966755007152 214.5227960900884 H 0.0 **** 0.06
30715 H 140.73834075612456 91.18644936302398 215.2987528951213 H 0.0 **** 0.06
30716 C 9.87075541247151 211.23751295568934 168.15911177317255 C 0.0 **** -0.24
30717 H 10.020627216405217 212.10433356401538 167.51643721234026 H 0.0 **** 0.06
30718 H 8.809000644345957 211.13108341413607 168.38279617491705 H 0.0 **** 0.06
30719 H 10.427011552027892 211.37233655258404 169.08666006782 H 0.0 **** 0.06
30720 H 10.226951475997112 210.3416582378072 167.6490481979646 H 0.0 **** 0.06
30721 C 103.51523898003744 6.843389134541837 56.85921857333274 C 0.0 **** -0.24
30722 H 103.91262125060136 7.790693897698304 56.49275141418205 H 0.0 **** 0.06
30723 H 104.2995079468747 6.087062064668629 56.83320545520067 H 0.0 **** 0.06
30724 H 102.68561760517353 6.529319124831659 56.22546424575846 H 0.0 **** 0.06
30725 H 103.16371033208382 6.969113846336654 57.883498833029336 H 0.0 **** 0.06
30726 C 65.62097666724607 45.211138033731814 137.172837714288 C 0.0 **** -0.24
30727 H 65.83084173095008 44.217496724002785 136.77818885448215 H 0.0 **** 0.06
30728 H 65.87872033732604 45.2439008761047 138.23245461226736 H 0.0 **** 0.06
30729 H 64.56163955531842 45.43515240552318 137.04964448439767 H 0.0 **** 0.06
30730 H 66.21289281938466 45.949336659575806 136.63215094125582 H 0.0 **** 0.06
30731 C 47.71982420379166 198.13375982439123 68.10709102305617 C 0.0 **** -0.24
30732 H 47.72127808287027 199.06062586724218 67.5317725069944 H 0.0 **** 0.06
30733 H 46.92098933606067 197.4848307764023 67.74783612057945 H 0.0 **** 0.06
30734 H 47.55889909052814 198.36131656509906 69.16121207256248 H 0.0 **** 0.06
30735 H 48.67917116743706 197.63080066299608 67.98596456020937 H 0.0 **** 0.06
30736 C 173.58209133139061 73.65531380626213 108.32815730024298 C 0.0 **** -0.24
30737 H 173.25176930336457 73.08744111787287 107.45894093607 H 0.0 **** 0.06
30738 H 172.95180492205236 73.41110872642848 109.18407147894256 H 0.0 **** 0.06
30739 H 173.5088103962619 74.72139369665506 108.11465390926499 H 0.0 **** 0.06
30740 H 174.61807710226344 73.40053404231519 108.55494115470798 H 0.0 **** 0.06
30741 C 127.35978373917287 115.54949304572155 121.8771503384866 C 0.0 **** -0.24
30742 H 126.43035746848967 115.72772879453207 122.41890210702287 H 0.0 **** 0.06
30743 H 127.23780587933338 114.6863935160465 121.22192231872363 H 0.0 **** 0.06
30744 H 128.1627591090069 115.35521117144599 122.58845705973555 H 0.0 **** 0.06
30745 H 127.60676387812244 116.42791325122631 121.28086107014742 H 0.0 **** 0.06
30746 C 178.80214039688678 34.23912870899747 44.47427896364056 C 0.0 **** -0.24
30747 H 179.01848338195936 34.57133502859523 43.45800939195807 H 0.0 **** 0.06
30748 H 178.01835184004796 33.48210391961932 44.448625454503855 H 0.0 **** 0.06
30749 H 178.4682028235112 35.08852806479038 45.07013512668398 H 0.0 **** 0.06
30750 H 179.70342686918215 33.81558997823281 44.91675355569542 H 0.0 **** 0.06
30751 C 117.1370719189044 215.34709459821426 31.17239432944426 C 0.0 **** -0.24
30752 H 116.30502813321179 214.7774611320528 30.758750780223977 H 0.0 **** 0.06
30753 H 116.91906519333354 215.60844044298733 32.20854372806228 H 0.0 **** 0.06
30754 H 117.27906505780994 216.25755002008302 30.590285226924237 H 0.0 **** 0.06
30755 H 118.04497665698027 214.74585861198926 31.132326887772024 H 0.0 **** 0.06
30756 C 25.877357740008136 136.8503157889034 64.5351745078525 C 0.0 **** -0.24
30757 H 26.007442228406887 135.79049550524098 64.75652523952674 H 0.0 **** 0.06
30758 H 26.828379763638395 137.27432121806368 64.21567081017821 H 0.0 **** 0.06
30759 H 25.531030837583444 137.367047475535 65.43048573010904 H 0.0 **** 0.06
30760 H 25.141196330318536 136.96693218086142 63.74046694178563 H 0.0 **** 0.06
30761 C 30.473050144511717 149.19267721292357 152.8116064658829 C 0.0 **** -0.24
30762 H 31.41449911544612 149.04322256121992 153.338261232987 H 0.0 **** 0.06
30763 H 29.736099198348768 148.4748950541544 153.1740167835851 H 0.0 **** 0.06
30764 H 30.62784189264562 149.0452479220574 151.74256986085106 H 0.0 **** 0.06
30765 H 30.112193396775297 150.20525350284822 152.99010237414342 H 0.0 **** 0.06
30766 C 201.60784982683742 44.13899790348859 181.95811579243792 C 0.0 **** -0.24
30767 H 201.8038849023393 44.51942251212972 180.95581968000297 H 0.0 **** 0.06
30768 H 201.8208313709103 44.918014909316184 182.69024454172094 H 0.0 **** 0.06
30769 H 202.2452681263172 43.27524201697429 182.14944752426507 H 0.0 **** 0.06
30770 H 200.56130848277658 43.84260832103001 182.03537240083662 H 0.0 **** 0.06
30771 C 94.49447527038653 11.290410368489631 163.0677616556809 C 0.0 **** -0.24
30772 H 93.41196166712676 11.233170476688315 163.18696337907454 H 0.0 **** 0.06
30773 H 94.77838964201929 12.313827527157457 162.82413063802016 H 0.0 **** 0.06
30774 H 94.80694815777535 10.624960172043757 162.26276608191932 H 0.0 **** 0.06
30775 H 94.97840792554321 10.989596682829927 163.99676189356592 H 0.0 **** 0.06
30776 C 61.62212024347005 122.12673201659436 29.383742105343742 C 0.0 **** -0.24
30777 H 62.27271535375294 122.58365980582835 30.12855558035409 H 0.0 **** 0.06
30778 H 60.62864293102291 121.98005407889116 29.811143089336838 H 0.0 **** 0.06
30779 H 62.03372280278481 121.16337276726802 29.082990673717234 H 0.0 **** 0.06
30780 H 61.55099423807786 122.77850654504698 28.513475377642578 H 0.0 **** 0.06
30781 C 40.20361179998639 0.9826626644324961 3.036189959646464 C 0.0 **** -0.24
30782 H 39.92775133214974 1.9446536480190275 2.6030808469442945 H 0.0 **** 0.06
30783 H 39.38113281860666 0.6104289188672851 3.646783520292729 H 0.0 **** 0.06
30784 H 41.09073240750695 1.1053447868393675 3.656438488994695 H 0.0 **** 0.06
30785 H 40.414033271280175 0.27193419991533574 2.2372581828013267 H 0.0 **** 0.06
30786 C 141.86371867131385 213.7455826709164 176.09328582298082 C 0.0 **** -0.24
30787 H 142.04065207800284 212.8807334560511 176.73191601732012 H 0.0 **** 0.06
30788 H 142.02899086237232 213.46770159916312 175.05230294571177 H 0.0 **** 0.06
30789 H 142.5484854933846 214.54697757194248 176.36836349693294 H 0.0 **** 0.06
30790 H 140.83564997024592 214.08613675612233 176.22012750641647 H 0.0 **** 0.06
30791 C 69.29530606414977 165.96523862699237 31.062812986029172 C 0.0 **** -0.24
30792 H 68.80785812516814 166.37043671541545 31.949620267540922 H 0.0 **** 0.06
30793 H 70.34184715598286 165.7572797520957 31.288713429249015 H 0.0 **** 0.06
30794 H 69.23534639198516 166.6899908091239 30.25230190673301 H 0.0 **** 0.06
30795 H 68.7977805947013 165.0429599490226 30.763982645097997 H 0.0 **** 0.06
30796 C 170.63388411861285 171.7776015015255 180.60403048855943 C 0.0 **** -0.24
30797 H 171.26003386800238 171.35254993784895 179.8192013312518 H 0.0 **** 0.06
30798 H 170.93953677825533 171.3741858241217 181.56940936750112 H 0.0 **** 0.06
30799 H 169.5913772726255 171.52162032009707 180.4157162763674 H 0.0 **** 0.06
30800 H 170.74697966865995 172.86199369212704 180.6102851606691 H 0.0 **** 0.06
30801 C 59.729500772397955 201.08550594041282 183.27389449831207 C 0.0 **** -0.24
30802 H 60.72124190226492 200.6398431900005 183.19602677051438 H 0.0 **** 0.06
30803 H 58.97518166797926 200.33944892276423 183.02292087423098 H 0.0 **** 0.06
30804 H 59.653942978291965 201.92645428384728 182.58388576245875 H 0.0 **** 0.06
30805 H 59.569008623763 201.43653309456118 184.29297267671384 H 0.0 **** 0.06
30806 C 142.8712593393049 205.23420022852233 71.4421753674324 C 0.0 **** -0.24
30807 H 143.67008079861063 204.7870299008414 72.03273450029666 H 0.0 **** 0.06
30808 H 142.3155361781374 204.4477725735565 70.930077258969 H 0.0 **** 0.06
30809 H 143.3009085631636 205.91283111654053 70.7055969317788 H 0.0 **** 0.06
30810 H 142.1990189944932 205.78631906876683 72.09814093329042 H 0.0 **** 0.06
30811 C 9.984299053968925 61.31012014845288 102.19456613753306 C 0.0 **** -0.24
30812 H 10.961717470048043 61.413755266817304 102.666320467569 H 0.0 **** 0.06
30813 H 9.47065718863358 60.44457827415073 102.61397697205786 H 0.0 **** 0.06
30814 H 10.112104978617651 61.172474790824765 101.1216418579341 H 0.0 **** 0.06
30815 H 9.39517516104371 62.20760544388355 102.37927210802678 H 0.0 **** 0.06
30816 C 145.17011595456444 0.5599210337234126 157.1358611736232 C 0.0 **** -0.24
30817 H 144.95820459319924 -0.32685727375655915 157.73471338872986 H 0.0 **** 0.06
30818 H 144.44906444113582 1.3409854168125719 157.3763633072801 H 0.0 **** 0.06
30819 H 145.0949651889175 0.3084883478503855 156.0774831129657 H 0.0 **** 0.06
30820 H 146.17729147513745 0.9136559645417037 157.35419163605957 H 0.0 **** 0.06
30821 C 57.31471544083071 24.29592290473262 111.85310604848712 C 0.0 **** -0.24
30822 H 58.399930437751394 24.240616971058273 111.76564859684566 H 0.0 **** 0.06
30823 H 56.899897045681556 24.747783406735763 110.95135334147733 H 0.0 **** 0.06
30824 H 57.05042311854314 24.903773253011877 112.71838384090228 H 0.0 **** 0.06
30825 H 56.90875391121192 23.292467029198136 111.97675741567411 H 0.0 **** 0.06
30826 C 131.9781252284286 82.13197443679684 59.913880902658605 C 0.0 **** -0.24
30827 H 132.2390358148636 81.11013913285143 60.18903070044138 H 0.0 **** 0.06
30828 H 132.87210214382088 82.75600356917596 59.946972902610526 H 0.0 **** 0.06
30829 H 131.238335674562 82.5192839929058 60.61476382277675 H 0.0 **** 0.06
30830 H 131.5641811620415 82.14183406592588 58.9052688636815 H 0.0 **** 0.06
30831 C 47.049552228585085 91.14427872613273 21.519102562372552 C 0.0 **** -0.24
30832 H 48.01261039862911 90.78710507611275 21.152954916309113 H 0.0 **** 0.06
30833 H 46.44522560613905 90.29619970098916 21.840646389419405 H 0.0 **** 0.06
30834 H 46.5330973727268 91.67671622348642 20.720315461277337 H 0.0 **** 0.06
30835 H 47.20828974635529 91.81852442244285 22.36078319081828 H 0.0 **** 0.06
30836 C 134.62537521317432 84.4301957756491 92.5605341196654 C 0.0 **** -0.24
30837 H 133.92129788827447 83.78055721731162 93.08146119516825 H 0.0 **** 0.06
30838 H 135.2819667414684 83.82453426064363 91.93456059041209 H 0.0 **** 0.06
30839 H 135.22117785972756 84.97839520197063 93.28978765489161 H 0.0 **** 0.06
30840 H 134.07553853954778 85.13388850786593 91.93660360636353 H 0.0 **** 0.06
30841 C 124.7473223799807 117.84858069461934 140.7272639830743 C 0.0 **** -0.24
30842 H 124.79950467003225 118.9282928388685 140.8687872605766 H 0.0 **** 0.06
30843 H 125.4706784029325 117.36166333166052 141.3816122765519 H 0.0 **** 0.06
30844 H 124.97662352054805 117.60763528109844 139.68936782871918 H 0.0 **** 0.06
30845 H 123.74418553595184 117.4984197496227 140.96878811567075 H 0.0 **** 0.06
30846 C 173.19861842822033 43.97302303132936 139.4429849639697 C 0.0 **** -0.24
30847 H 172.59256350778395 44.56275457347387 140.13107673543976 H 0.0 **** 0.06
30848 H 173.45959917437852 43.02356700945356 139.9120185173481 H 0.0 **** 0.06
30849 H 174.10846470937364 44.520882324430445 139.20050598829147 H 0.0 **** 0.06
30850 H 172.63319929343402 43.785043899795696 138.53069599040413 H 0.0 **** 0.06
30851 C 182.2159745054867 185.67378005598522 32.49973126313665 C 0.0 **** -0.24
30852 H 182.91303118462133 185.94422506967652 33.2928432454579 H 0.0 **** 0.06
30853 H 181.37061393198397 186.3614697106288 32.50903548012474 H 0.0 **** 0.06
30854 H 181.85895214809136 184.65697084165936 32.66103898924206 H 0.0 **** 0.06
30855 H 182.7225621370523 185.73197507400485 31.535584244567445 H 0.0 **** 0.06
30856 C 169.8740107936826 77.72929536267516 143.1801355490208 C 0.0 **** -0.24
30857 H 170.42678243139386 77.10064001814409 143.87854883533345 H 0.0 **** 0.06
30858 H 170.42856546751915 77.80980431373781 142.2456295052607 H 0.0 **** 0.06
30859 H 169.74173415246088 78.72182609954358 143.61174506786358 H 0.0 **** 0.06
30860 H 168.8971476236074 77.28518378748494 142.98677214587605 H 0.0 **** 0.06
30861 C 12.909161026587668 68.24714909235968 178.74021782065202 C 0.0 **** -0.24
30862 H 13.080094320751058 68.42755222250128 179.80191583368602 H 0.0 **** 0.06
30863 H 11.992760906918576 67.66992725323428 178.6127034099051 H 0.0 **** 0.06
30864 H 13.75026042963691 67.69169587815293 178.32665568606487 H 0.0 **** 0.06
30865 H 12.81313748229205 69.2013303045924 178.22108022021214 H 0.0 **** 0.06
30866 C 204.90404295182572 67.15377602982 129.4045514709477 C 0.0 **** -0.24
30867 H 204.6837083957759 66.10435616951276 129.20670609798287 H 0.0 **** 0.06
30868 H 205.0628260788631 67.67562411558316 128.46046850693057 H 0.0 **** 0.06
30869 H 205.80360980802482 67.22612287265 130.01635663059244 H 0.0 **** 0.06
30870 H 204.0667125475817 67.60688707469603 129.934924269495 H 0.0 **** 0.06
30871 C 89.7168525728062 34.89568668803696 15.192238584289527 C 0.0 **** -0.24
30872 H 88.82102805911006 35.39312978893864 15.564622723959388 H 0.0 **** 0.06
30873 H 90.58424098822047 35.533522554302266 15.36467087592618 H 0.0 **** 0.06
30874 H 89.61103612995794 34.70799443658409 14.124028574232852 H 0.0 **** 0.06
30875 H 89.8514044895955 33.94999876978328 15.716184440337656 H 0.0 **** 0.06
30876 C 79.00428122204045 0.5572634601274942 178.16186534398594 C 0.0 **** -0.24
30877 H 79.7836413269585 1.2101410578059557 177.76858451597803 H 0.0 **** 0.06
30878 H 78.55723700987966 1.016930864076535 179.0427214440075 H 0.0 **** 0.06
30879 H 79.44028558335486 -0.4040966087155766 178.4336320688741 H 0.0 **** 0.06
30880 H 78.23846192288659 0.40719344146796743 177.4006518831036 H 0.0 **** 0.06
30881 C 62.244545522742385 80.89111542080371 17.49525120266395 C 0.0 **** -0.24
30882 H 61.56894746458991 81.70479957249887 17.23219513418786 H 0.0 **** 0.06
30883 H 63.20257335600809 81.03943278395866 16.995625552978126 H 0.0 **** 0.06
30884 H 61.811872719947814 79.94291088045702 17.177439122209165 H 0.0 **** 0.06
30885 H 62.395096114275134 80.87803101599673 18.57456276492411 H 0.0 **** 0.06
30886 C 71.62516085118658 11.530756359181169 171.49553544658949 C 0.0 **** -0.24
30887 H 72.02257932241066 12.458639486136832 171.08631598380293 H 0.0 **** 0.06
30888 H 71.09830091701015 10.984048844399666 170.71371089259964 H 0.0 **** 0.06
30889 H 70.93463996520826 11.757929410104055 172.30791371587884 H 0.0 **** 0.06
30890 H 72.44521166508913 10.920791160965052 171.87603942416308 H 0.0 **** 0.06
30891 C 116.75496728255656 176.23824515124943 112.40040143489769 C 0.0 **** -0.24
30892 H 115.78389740620126 176.6194419837153 112.08484573021461 H 0.0 **** 0.06
30893 H 117.20930938723994 176.93765105553865 113.10216690075534 H 0.0 **** 0.06
30894 H 117.40087667709618 176.1245063633545 111.52971740441883 H 0.0 **** 0.06
30895 H 116.62483921318629 175.2699571623515 112.88515210940385 H 0.0 **** 0.06
30896 C 119.96257417226015 142.34357714315138 185.74110909543919 C 0.0 **** -0.24
30897 H 120.09633615354265 142.59286713561335 186.79384190663174 H 0.0 **** 0.06
30898 H 120.93840132817267 142.2051050115723 185.27418191718712 H 0.0 **** 0.06
30899 H 119.43185874612512 143.15363682567886 185.2407666272358 H 0.0 **** 0.06
30900 H 119.3846753056638 141.4234694446485 185.65632198616413 H 0.0 **** 0.06
30901 C 210.45643339567184 118.19985798488248 86.02627718790554 C 0.0 **** -0.24
30902 H 210.61824806061307 119.07390668837267 86.65557996240757 H 0.0 **** 0.06
30903 H 209.38812984832526 117.99432859170456 85.95700714028182 H 0.0 **** 0.06
30904 H 210.9644585979845 117.3391430965995 86.46323077943539 H 0.0 **** 0.06
30905 H 210.85563970028005 118.38995263293056 85.03030807349963 H 0.0 **** 0.06
30906 C 157.39439182036875 89.67294367541592 150.2217036930275 C 0.0 **** -0.24
30907 H 156.65758280028865 90.00094144819661 150.95546392547334 H 0.0 **** 0.06
30908 H 157.5166679557613 90.44407621865918 149.4612082745382 H 0.0 **** 0.06
30909 H 157.052653002733 88.7494270819027 149.7526995942926 H 0.0 **** 0.06
30910 H 158.347869003884 89.49596101534502 150.71859052345877 H 0.0 **** 0.06
30911 C 194.91065532237468 138.8155240961745 180.79832086202487 C 0.0 **** -0.24
30912 H 195.02012256670503 139.77818243530083 180.29760836637234 H 0.0 **** 0.06
30913 H 194.5070172518037 138.08568257585216 180.09691741845543 H 0.0 **** 0.06
30914 H 194.2324477345587 138.92137960224898 181.6446146668871 H 0.0 **** 0.06
30915 H 195.88557433173966 138.4782809092868 181.1534337061603 H 0.0 **** 0.06
30916 C 52.11891886375338 149.16579211653436 129.86405576902297 C 0.0 **** -0.24
30917 H 53.056987121130646 148.6108108197883 129.83197997249601 H 0.0 **** 0.06
30918 H 51.64538401629005 149.1329030891809 128.8829257093937 H 0.0 **** 0.06
30919 H 52.31940713705586 150.2012494016156 130.13731348921527 H 0.0 **** 0.06
30920 H 51.45661300821433 148.7163016047656 130.60397290716884 H 0.0 **** 0.06
30921 C 71.75046617300433 54.17150914054315 211.3588794058152 C 0.0 **** -0.24
30922 H 70.9638283522965 54.92598375687456 211.37693856749624 H 0.0 **** 0.06
30923 H 72.68358084257778 54.611574512452236 211.71202050356203 H 0.0 **** 0.06
30924 H 71.88298272149007 53.80916340089591 210.3397002963543 H 0.0 **** 0.06
30925 H 71.47189209684711 53.340987471762816 212.00702164909163 H 0.0 **** 0.06
30926 C 81.0188167794896 123.00846358979702 86.14105312176885 C 0.0 **** -0.24
30927 H 80.1180470599415 123.17048765093496 86.73320450076473 H 0.0 **** 0.06
30928 H 81.3824742597529 123.96521899300514 85.76442399989885 H 0.0 **** 0.06
30929 H 80.78844020967328 122.35131308033293 85.30242508587024 H 0.0 **** 0.06
30930 H 81.78503868038119 122.54746299546402 86.76417075410761 H 0.0 **** 0.06
30931 C 166.72447175552827 124.20008995151132 93.94086183500349 C 0.0 **** -0.24
30932 H 167.16005975706304 123.41500576072205 94.55840700096127 H 0.0 **** 0.06
30933 H 167.08482645775038 124.09820906610058 92.9164542322406 H 0.0 **** 0.06
30934 H 167.01614794089517 125.1742293156105 94.33319923609861 H 0.0 **** 0.06
30935 H 165.6385036587237 124.11315150271214 93.95428263684641 H 0.0 **** 0.06
30936 C 120.82260669223969 33.86362621992629 50.464077611229044 C 0.0 **** -0.24
30937 H 121.23090296987088 33.512441068115635 51.41148843414241 H 0.0 **** 0.06
30938 H 120.49426459923679 33.00949765326345 49.87115096158787 H 0.0 **** 0.06
30939 H 121.59191853783084 34.41056070801079 49.91808575845789 H 0.0 **** 0.06
30940 H 119.97568553377472 34.521304193720624 50.655684876551405 H 0.0 **** 0.06
30941 C 183.56945066627213 6.801557768102157 72.35798833354777 C 0.0 **** -0.24
30942 H 184.58168102825206 6.588889575575806 72.70094614423779 H 0.0 **** 0.06
30943 H 182.852532627103 6.456258030572968 73.10330220239685 H 0.0 **** 0.06
30944 H 183.38992127194444 6.285380373701685 71.41428591747963 H 0.0 **** 0.06
30945 H 183.45343618345476 7.875825307882494 72.21202929315139 H 0.0 **** 0.06
30946 C 141.2062951533294 63.10883229758423 75.2776476653944 C 0.0 **** -0.24
30947 H 141.6242835534644 64.05100911367771 74.92124942781646 H 0.0 **** 0.06
30948 H 140.18169458217716 63.27010176807926 75.61365357978957 H 0.0 **** 0.06
30949 H 141.80676134307788 62.735336814132154 76.1069863244357 H 0.0 **** 0.06
30950 H 141.21194679033613 62.37990637076996 74.46677640433774 H 0.0 **** 0.06
30951 C 212.72099317489548 0.5731323108733903 28.74776861477153 C 0.0 **** -0.24
30952 H 212.23803428949554 1.1965143412510457 27.99632489160166 H 0.0 **** 0.06
30953 H 211.97110368851256 -0.036100825531903524 29.251717887575666 H 0.0 **** 0.06
30954 H 213.22362847828958 1.2078733029576938 29.477995821007255 H 0.0 **** 0.06
30955 H 213.45236861353973 -0.07501536750167048 28.265348999516448 H 0.0 **** 0.06
30956 C 206.01616678951578 109.7200749873072 172.62190162118196 C 0.0 **** -0.24
30957 H 205.82114337225158 110.78183544148176 172.7731588319174 H 0.0 **** 0.06
30958 H 205.83651736350873 109.18210575534282 173.55328142752495 H 0.0 **** 0.06
30959 H 207.05323554125226 109.58243059100501 172.31591541118968 H 0.0 **** 0.06
30960 H 205.3537595064853 109.33633317174021 171.8457154618902 H 0.0 **** 0.06
30961 C 117.88270081723196 213.89919406068626 118.92541843774917 C 0.0 **** -0.24
30962 H 118.42780121372094 214.42950672129078 118.14481599751893 H 0.0 **** 0.06
30963 H 117.49001387424794 212.9648750950632 118.52453669975493 H 0.0 **** 0.06
30964 H 117.05718469134636 214.51940752210518 119.27678370382596 H 0.0 **** 0.06
30965 H 118.5550274828983 213.68498616311777 119.75617048688635 H 0.0 **** 0.06
30966 C 33.06913526029575 24.721285249923085 77.37994697034134 C 0.0 **** -0.24
30967 H 32.42975444698095 23.842175803773387 77.29242032154684 H 0.0 **** 0.06
30968 H 33.03742155664321 25.092416348947154 78.4044576288839 H 0.0 **** 0.06
30969 H 32.71427278485612 25.49673782455858 76.7015281803823 H 0.0 **** 0.06
30970 H 34.09350285734655 24.452597085552497 77.12139748255015 H 0.0 **** 0.06
30971 C 135.82594448529994 198.30637846358528 29.422981077375084 C 0.0 **** -0.24
30972 H 134.78697637287536 198.17541277428393 29.11801155126585 H 0.0 **** 0.06
30973 H 135.89887892459382 198.22768199535707 30.507527786470803 H 0.0 **** 0.06
30974 H 136.17533225474375 199.2892716841448 29.10437431878438 H 0.0 **** 0.06
30975 H 136.44021303015592 197.53480773098926 28.959867830501253 H 0.0 **** 0.06
30976 C 110.36292074277065 156.73574130439818 86.14853624147538 C 0.0 **** -0.24
30977 H 110.95173421847034 157.46812550947777 85.59685771881205 H 0.0 **** 0.06
30978 H 109.30194899086769 156.94225939755103 86.00916856487113 H 0.0 **** 0.06
30979 H 110.60949011425822 156.79710437726152 87.20846041483684 H 0.0 **** 0.06
30980 H 110.5909350503727 155.73518746313005 85.77947304456494 H 0.0 **** 0.06
30981 C 42.093540496329794 150.41451441672717 19.78024170523588 C 0.0 **** -0.24
30982 H 42.691480327230565 151.1783398516592 19.283711957813125 H 0.0 **** 0.06
30983 H 41.315639842239705 150.89282998145433 20.375248366501694 H 0.0 **** 0.06
30984 H 42.732619171077715 149.81712911748662 20.429901135714033 H 0.0 **** 0.06
30985 H 41.63389194851153 149.76956828455252 19.03018646409035 H 0.0 **** 0.06
30986 C 146.81608568396928 72.48651647744623 154.99759327559485 C 0.0 **** -0.24
30987 H 145.93674933169115 72.15626519188515 154.44455457404143 H 0.0 **** 0.06
30988 H 147.20530199903135 71.65668525363719 155.58819292895527 H 0.0 **** 0.06
30989 H 146.54111197935322 73.30742147557407 155.658997511267 H 0.0 **** 0.06
30990 H 147.58007431395708 72.82445608398649 154.29682630526162 H 0.0 **** 0.06
30991 C 78.38934904874628 55.53304139925831 12.608932263150095 C 0.0 **** -0.24
30992 H 79.12090642303923 55.17510396817897 11.884267688445178 H 0.0 **** 0.06
30993 H 78.2406148304209 56.60492759741442 12.47622108482841 H 0.0 **** 0.06
30994 H 78.7525131393885 55.33786612987325 13.618019274487025 H 0.0 **** 0.06
30995 H 77.44328657487182 55.01324088338487 12.456251670835897 H 0.0 **** 0.06
30996 C 130.734381859454 118.86787183856107 178.04685626109926 C 0.0 **** -0.24
30997 H 129.72053384676178 119.2009611044404 178.26615027569858 H 0.0 **** 0.06
30998 H 130.71866691286579 118.195430690354 177.1893802717522 H 0.0 **** 0.06
30999 H 131.13976549325218 118.34414810239237 178.9124997742657 H 0.0 **** 0.06
31000 H 131.3590740831919 119.73194308071582 177.82025826353538 H 0.0 **** 0.06
31001 C 57.771127497067596 169.28898590197824 47.48195150285795 C 0.0 **** -0.24
31002 H 56.81966535130425 168.77800947129737 47.62729591779669 H 0.0 **** 0.06
31003 H 57.670496812483066 170.02411681555412 46.68174578627901 H 0.0 **** 0.06
31004 H 58.53660490013243 168.5612831793074 47.21235137122204 H 0.0 **** 0.06
31005 H 58.05806826934818 169.79364212881126 48.40449809931124 H 0.0 **** 0.06
31006 C 15.646152118166498 5.732631953590996 100.80834472461771 C 0.0 **** -0.24
31007 H 16.369059255350805 4.973467513618111 100.51068426201266 H 0.0 **** 0.06
31008 H 15.762890370742241 5.948798342640103 101.8708768088859 H 0.0 **** 0.06
31009 H 14.637080096039085 5.3668049316031485 100.62074577381873 H 0.0 **** 0.06
31010 H 15.816535233930765 6.641607125142258 100.23132230734274 H 0.0 **** 0.06
31011 C 165.08449895465955 74.65027239041397 157.27143972089715 C 0.0 **** -0.24
31012 H 164.0206821305792 74.54755089794541 157.48250647454353 H 0.0 **** 0.06
31013 H 165.53552819615916 73.66008221074132 157.1909959108683 H 0.0 **** 0.06
31014 H 165.5639656239529 75.20339020616431 158.0784549094937 H 0.0 **** 0.06
31015 H 165.21801178057427 75.1874890396282 156.33227799908855 H 0.0 **** 0.06
31016 C 190.54470465430097 115.60062270765144 173.2221473676808 C 0.0 **** -0.24
31017 H 189.71398415916684 115.8542904759235 172.56370810928786 H 0.0 **** 0.06
31018 H 190.47556595060206 116.18972550677285 174.1379950136868 H 0.0 **** 0.06
31019 H 191.487005537211 115.81928980619273 172.71941892291326 H 0.0 **** 0.06
31020 H 190.50168991641584 114.54006321225285 173.46841635040644 H 0.0 **** 0.06
31021 C 14.416628348063284 75.17496013473557 95.70533012274105 C 0.0 **** -0.24
31022 H 13.49383126500453 74.59584462014128 95.74965747697156 H 0.0 **** 0.06
31023 H 15.17350804453622 74.61092860048247 95.15910424324714 H 0.0 **** 0.06
31024 H 14.769965893730046 75.37146601003742 96.71795007579023 H 0.0 **** 0.06
31025 H 14.22864323458441 76.11883340255658 95.19561848551204 H 0.0 **** 0.06
31026 C 167.90163595984586 83.08153059059742 147.5289662402272 C 0.0 **** -0.24
31027 H 167.3342641654706 82.15089109431796 147.49647735386964 H 0.0 **** 0.06
31028 H 168.82911747818298 82.9216307667466 148.07847530308686 H 0.0 **** 0.06
31029 H 167.31028421779786 83.84964226504678 148.02753490363818 H 0.0 **** 0.06
31030 H 168.1301440756953 83.40145141199417 146.51288562002458 H 0.0 **** 0.06
31031 C 81.36517449925712 147.65284794771253 127.95712514836436 C 0.0 **** -0.24
31032 H 82.39675899075878 147.30226379003648 127.92259509263761 H 0.0 **** 0.06
31033 H 81.3035313160333 148.53549861262002 128.59463364122848 H 0.0 **** 0.06
31034 H 80.7278997322626 146.86646068159342 128.36172504675494 H 0.0 **** 0.06
31035 H 81.03380393015912 147.90791835094387 126.95041775502727 H 0.0 **** 0.06
31036 C 4.223199142155323 205.1202072161712 185.57416324666306 C 0.0 **** -0.24
31037 H 4.304106367619369 205.8394758573328 184.75932781843653 H 0.0 **** 0.06
31038 H 3.489414113699553 205.47373442130504 186.29959223040888 H 0.0 **** 0.06
31039 H 5.192280118986702 205.0126074093733 186.06104462091437 H 0.0 **** 0.06
31040 H 3.906249601009307 204.15566842960976 185.17679306120428 H 0.0 **** 0.06
31041 C 163.2726090184878 157.3158014069893 95.02354046990688 C 0.0 **** -0.24
31042 H 163.32056960960762 158.04193060932448 94.21109396347158 H 0.0 **** 0.06
31043 H 162.40476972945538 157.52686987832982 95.64739396624758 H 0.0 **** 0.06
31044 H 164.17849433396555 157.38354347341289 95.6244538696481 H 0.0 **** 0.06
31045 H 163.18614572891823 156.3113419327936 94.6069118187349 H 0.0 **** 0.06
31046 C 170.46998194756318 86.24184809917296 27.701154051523588 C 0.0 **** -0.24
31047 H 169.8360595604929 86.09690041252867 28.576123603950663 H 0.0 **** 0.06
31048 H 170.13452052174284 87.12174605713682 27.152115479436077 H 0.0 **** 0.06
31049 H 170.4067913394369 85.36468608476218 27.057238775260487 H 0.0 **** 0.06
31050 H 171.50198310892344 86.38489437777838 28.021368823973603 H 0.0 **** 0.06
31051 C 47.92733875194931 165.78248759727944 27.68023139110278 C 0.0 **** -0.24
31052 H 47.0124034340643 165.2458056951124 27.431999616818757 H 0.0 **** 0.06
31053 H 48.10235263592132 166.56379231435415 26.939972495704325 H 0.0 **** 0.06
31054 H 48.76764712060867 165.08777146478917 27.68093027584061 H 0.0 **** 0.06
31055 H 47.82770736184462 166.23283613334257 28.668626527330076 H 0.0 **** 0.06
31056 C 175.1243470103406 47.201476752033926 9.435483657351455 C 0.0 **** -0.24
31057 H 174.54479639040795 47.80579183847584 10.132669052806364 H 0.0 **** 0.06
31058 H 175.84343676873794 47.835299205998425 8.916298567538831 H 0.0 **** 0.06
31059 H 174.45436966153466 46.740265607739815 8.710139075461484 H 0.0 **** 0.06
31060 H 175.6557613604129 46.42322854287491 9.984644541203352 H 0.0 **** 0.06
31061 C 52.322065972396004 78.50481321467622 216.88499055250116 C 0.0 **** -0.24
31062 H 51.91328240721886 79.03292181544079 217.74758285052852 H 0.0 **** 0.06
31063 H 53.39887515506466 78.66515024776798 216.83829853178554 H 0.0 **** 0.06
31064 H 51.85796665859867 78.88202600199487 215.97428892247856 H 0.0 **** 0.06
31065 H 52.11708884831117 77.43835640185232 216.9832931313637 H 0.0 **** 0.06
31066 C 93.34453778085329 47.75968453861627 208.88789007152985 C 0.0 **** -0.24
31067 H 93.05742589717552 47.71402322864495 207.8380786967614 H 0.0 **** 0.06
31068 H 93.3032800288628 48.793550759804006 209.2323354086433 H 0.0 **** 0.06
31069 H 94.358844865508 47.377879061092415 209.00452134356743 H 0.0 **** 0.06
31070 H 92.65754747583752 47.15260352558819 209.4791600056585 H 0.0 **** 0.06
31071 C 200.0926894463243 125.22871797921054 186.68744997108527 C 0.0 **** -0.24
31072 H 200.28060114614883 124.64217752780799 187.58668666200958 H 0.0 **** 0.06
31073 H 200.35368071852076 126.27118865286128 186.8729886655352 H 0.0 **** 0.06
31074 H 199.03807878845384 125.15903425367118 186.4233578406525 H 0.0 **** 0.06
31075 H 200.6990671686773 124.84217615040926 185.86887951400055 H 0.0 **** 0.06
31076 C 215.64340155081982 24.9082595912854 57.30731387298431 C 0.0 **** -0.24
31077 H 215.96943446133966 24.77759072104203 56.27648008984248 H 0.0 **** 0.06
31078 H 216.11420140480783 24.15241840186701 57.93658785514165 H 0.0 **** 0.06
31079 H 214.5593443859266 24.802810824349933 57.36140432023974 H 0.0 **** 0.06
31080 H 215.92971692456683 25.900802909610206 57.65613677421443 H 0.0 **** 0.06
31081 C 106.19744561346589 22.07599618550556 207.9151497012459 C 0.0 **** -0.24
31082 H 105.12969496188633 22.120721405247835 207.70233681346554 H 0.0 **** 0.06
31083 H 106.68146068821177 22.976081596540325 207.53634659438987 H 0.0 **** 0.06
31084 H 106.62835369756682 21.199352903876232 207.43050453947856 H 0.0 **** 0.06
31085 H 106.35015648421727 22.006239571491278 208.99208959717538 H 0.0 **** 0.06
31086 C 130.35996280058248 125.74695845600841 13.191120169112367 C 0.0 **** -0.24
31087 H 129.91638834832264 124.7534390202638 13.1129728466463 H 0.0 **** 0.06
31088 H 131.22751232951663 125.70631936201319 13.851048532120274 H 0.0 **** 0.06
31089 H 129.6258254565305 126.44123019976495 13.598745273900022 H 0.0 **** 0.06
31090 H 130.67006390347035 126.08458335856405 12.202652236955828 H 0.0 **** 0.06
31091 C 0.2084234249457637 168.48066151538788 137.88277464542745 C 0.0 **** -0.24
31092 H -0.28801002275874765 169.01542470132364 138.69329073092058 H 0.0 **** 0.06
31093 H 0.22869481546874226 169.10839434232872 136.9918808772415 H 0.0 **** 0.06
31094 H -0.33568978009836314 167.56089114421127 137.66799005055918 H 0.0 **** 0.06
31095 H 1.2282324289725324 168.23739593767462 138.18028024842226 H 0.0 **** 0.06
31096 C 75.17921506614685 61.532828206201174 109.2666888883919 C 0.0 **** -0.24
31097 H 74.88840464445708 62.06984808150864 110.16936495622771 H 0.0 **** 0.06
31098 H 74.72627359360654 60.54099416905507 109.27211251547105 H 0.0 **** 0.06
31099 H 76.26525128416257 61.437040522176716 109.23546045238244 H 0.0 **** 0.06
31100 H 74.839056970539 62.083967776171164 108.39025362405722 H 0.0 **** 0.06
31101 C 19.237091071972003 54.125362481021284 7.494170493671049 C 0.0 **** -0.24
31102 H 19.703470444190316 54.11237010567481 6.509633751250135 H 0.0 **** 0.06
31103 H 19.461828325285282 53.194065383588566 8.01486237392416 H 0.0 **** 0.06
31104 H 18.157709125738577 54.22806424613202 7.384438590150552 H 0.0 **** 0.06
31105 H 19.625917702505262 54.96654183612503 8.068979417366052 H 0.0 **** 0.06
31106 C 149.84988982997464 57.639874544825574 153.79432460781743 C 0.0 **** -0.24
31107 H 149.1730905362827 56.78594722871651 153.75700168365427 H 0.0 **** 0.06
31108 H 150.4431356753422 57.67180281867691 152.88067419195113 H 0.0 **** 0.06
31109 H 150.51270114086918 57.539791334167276 154.6542052183637 H 0.0 **** 0.06
31110 H 149.27062102910133 58.55821888224811 153.88558498395582 H 0.0 **** 0.06
31111 C 180.719021201869 157.05364169338577 88.43146406894958 C 0.0 **** -0.24
31112 H 181.79066509889765 156.9981335144907 88.24023034759414 H 0.0 **** 0.06
31113 H 180.17794945093763 156.6126475421466 87.59376264814442 H 0.0 **** 0.06
31114 H 180.42510160749907 158.09706823159053 88.54544419159514 H 0.0 **** 0.06
31115 H 180.48428755647146 156.50813258735843 89.34459825424808 H 0.0 **** 0.06
31116 C 67.88134410012293 61.72667134784014 205.35737164353924 C 0.0 **** -0.24
31117 H 67.40074864375327 61.22294486199428 204.51817572719713 H 0.0 **** 0.06
31118 H 68.61045230874419 62.44447802164714 204.98015028488607 H 0.0 **** 0.06
31119 H 68.38605373365294 60.989257664904756 205.98153619117647 H 0.0 **** 0.06
31120 H 67.12873069560698 62.24852757256343 205.94729050071777 H 0.0 **** 0.06
31121 C 153.5946601053045 17.673392899473214 182.61156122811786 C 0.0 **** -0.24
31122 H 153.71767751523498 18.03245130665414 183.6333596006857 H 0.0 **** 0.06
31123 H 152.5577496770037 17.37472674472329 182.45418764036506 H 0.0 **** 0.06
31124 H 154.24943224364398 16.817001543785693 182.44622081382371 H 0.0 **** 0.06
31125 H 153.85441480982058 18.469173775149898 181.9137221194743 H 0.0 **** 0.06
31126 C 42.699499630582466 200.19170575109052 42.45807138631997 C 0.0 **** -0.24
31127 H 43.03554249841761 199.2375643863965 42.05274241457256 H 0.0 **** 0.06
31128 H 42.135985228739 200.7316072950668 41.696276138276616 H 0.0 **** 0.06
31129 H 43.56417252008754 200.7839540762713 42.75800614057272 H 0.0 **** 0.06
31130 H 42.06202376654966 200.0144447440631 43.32372268948207 H 0.0 **** 0.06
31131 C 14.177326501848427 133.5491151248404 177.01586842492617 C 0.0 **** -0.24
31132 H 14.42084521930741 133.73785857338999 178.0618128285542 H 0.0 **** 0.06
31133 H 14.533789411835471 134.378574129308 176.40492481536717 H 0.0 **** 0.06
31134 H 13.096896306922474 133.45399802888414 176.9062669948786 H 0.0 **** 0.06
31135 H 14.658424146723064 132.62561410447807 176.69319046828832 H 0.0 **** 0.06
31136 C 96.91422293503463 195.36726069886217 53.80117920547153 C 0.0 **** -0.24
31137 H 97.83077227150046 195.64561723917043 54.32160700241167 H 0.0 **** 0.06
31138 H 96.43142265429067 196.264577462541 53.41181988399245 H 0.0 **** 0.06
31139 H 96.24059192866461 194.86466136437625 54.49587721751462 H 0.0 **** 0.06
31140 H 97.15283929180838 194.6958262738944 52.97672048995072 H 0.0 **** 0.06
31141 C 7.139167454018619 128.64526342950415 172.4838928803283 C 0.0 **** -0.24
31142 H 6.132767023037289 128.2253962458242 172.499087569629 H 0.0 **** 0.06
31143 H 7.077993867107537 129.73239630648374 172.43226886002384 H 0.0 **** 0.06
31144 H 7.675013905642032 128.27011424620304 171.61125731576254 H 0.0 **** 0.06
31145 H 7.669185278052041 128.35323767502973 173.3896307979588 H 0.0 **** 0.06
31146 C 103.38202588068803 151.5674494979292 26.638946984911684 C 0.0 **** -0.24
31147 H 104.20528802669322 151.74789682785388 25.947117272405933 H 0.0 **** 0.06
31148 H 103.7790842267314 151.40694686126 27.64135194914411 H 0.0 **** 0.06
31149 H 102.82801751982687 150.68447236262273 26.32114005870517 H 0.0 **** 0.06
31150 H 102.71706523725878 152.43110090027778 26.64484058735087 H 0.0 **** 0.06
31151 C 120.37714169260586 8.088689644335034 157.9835121250233 C 0.0 **** -0.24
31152 H 121.3157955425015 7.53473149044116 157.96743567921573 H 0.0 **** 0.06
31153 H 119.54335785864005 7.387831568366877 158.03485049276253 H 0.0 **** 0.06
31154 H 120.293822106939 8.687036373536102 157.07606009846046 H 0.0 **** 0.06
31155 H 120.35722958990873 8.7429812967695 158.85409816314143 H 0.0 **** 0.06
31156 C 42.27287142327265 186.99166243137887 158.28676038396748 C 0.0 **** -0.24
31157 H 41.40568656464268 187.56645319500444 158.6104826726827 H 0.0 **** 0.06
31158 H 42.020870391569076 185.93047706411787 158.2740221955782 H 0.0 **** 0.06
31159 H 43.100074008333706 187.1610152994961 158.97634332473956 H 0.0 **** 0.06
31160 H 42.564117511177926 187.30715384412304 157.28516714715437 H 0.0 **** 0.06
31161 C 27.170762671814813 65.73255534509208 146.3087147460227 C 0.0 **** -0.24
31162 H 26.53585831682564 64.97352494100444 146.76460445284005 H 0.0 **** 0.06
31163 H 26.58238963715813 66.62959631273114 146.11447051961227 H 0.0 **** 0.06
31164 H 27.575547106554993 65.35222418176863 145.3710181539721 H 0.0 **** 0.06
31165 H 27.98973700656161 65.97522432035207 146.98604918999513 H 0.0 **** 0.06
31166 C 180.13723650655913 2.6326823974688978 130.74956340424018 C 0.0 **** -0.24
31167 H 180.96661174955779 2.1238306144928174 130.25917101854066 H 0.0 **** 0.06
31168 H 179.20799142732744 2.394576372980083 130.23086960278596 H 0.0 **** 0.06
31169 H 180.30490924594983 3.7097905989971025 130.72051295545072 H 0.0 **** 0.06
31170 H 180.07011551458595 2.30281669200221 131.78649422782775 H 0.0 **** 0.06
31171 C 193.20568115201752 142.80344690018705 83.76275965242974 C 0.0 **** -0.24
31172 H 193.63869686478128 143.39325722010614 82.95499092827521 H 0.0 **** 0.06
31173 H 192.22979951205951 142.42784399079738 83.45513713197323 H 0.0 **** 0.06
31174 H 193.0925532406551 143.42857931541175 84.64805771684809 H 0.0 **** 0.06
31175 H 193.86380393189626 141.96488333787994 83.99192271133956 H 0.0 **** 0.06
31176 C 101.79371609105281 119.7537427389408 42.5885529865038 C 0.0 **** -0.24
31177 H 102.85521223352394 119.6170618213328 42.381407126314684 H 0.0 **** 0.06
31178 H 101.25529467079564 118.83869457693099 42.34222927996143 H 0.0 **** 0.06
31179 H 101.40870716220662 120.57707253561786 41.987719157255356 H 0.0 **** 0.06
31180 H 101.65725786476166 119.98125989056909 43.646549329893844 H 0.0 **** 0.06
31181 C 127.14449057304704 50.72497805680145 55.896974386795435 C 0.0 **** -0.24
31182 H 128.15759609077384 50.39938509358102 56.13235400302972 H 0.0 **** 0.06
31183 H 127.17008631353504 51.748353467363955 55.522583195523296 H 0.0 **** 0.06
31184 H 126.5305697101637 50.681501691310686 56.79642483640173 H 0.0 **** 0.06
31185 H 126.72100427854694 50.06911855227304 55.13558038617832 H 0.0 **** 0.06
31186 C 212.05543997234633 85.79356483835443 181.20278125502583 C 0.0 **** -0.24
31187 H 211.49503311791466 85.89812937052346 180.27294655043704 H 0.0 **** 0.06
31188 H 212.7897430785594 86.59604647214604 181.27624090577297 H 0.0 **** 0.06
31189 H 212.56519590847478 84.83070831490306 181.21328457456633 H 0.0 **** 0.06
31190 H 211.36842666038342 85.8506081999073 182.0482254774324 H 0.0 **** 0.06
31191 C 136.99387110798796 215.84514785978376 54.98900406760495 C 0.0 **** -0.24
31192 H 136.18038296550702 215.1822838501552 54.69271114217982 H 0.0 **** 0.06
31193 H 137.9138242979884 215.26921745934084 55.087778725354326 H 0.0 **** 0.06
31194 H 136.75147562477673 216.3110623464155 55.94444232701987 H 0.0 **** 0.06
31195 H 137.12666044716048 216.61696837360276 54.230977537840346 H 0.0 **** 0.06
31196 C 204.6194644921105 38.41910906203695 172.96593902493626 C 0.0 **** -0.24
31197 H 205.15024748095703 37.49478408531503 172.73900536853515 H 0.0 **** 0.06
31198 H 205.12433376935087 39.25624898216539 172.48237214441724 H 0.0 **** 0.06
31199 H 204.6065986687865 38.574932950555166 174.04430190895982 H 0.0 **** 0.06
31200 H 203.59533248900232 38.350313063432154 172.5969974110269 H 0.0 **** 0.06
31201 C 172.26372240585616 99.13863658232127 70.11141414324344 C 0.0 **** -0.24
31202 H 172.31313119711268 98.10401855827142 70.45189243059842 H 0.0 **** 0.06
31203 H 171.2866520988169 99.55525323309924 70.35749813248985 H 0.0 **** 0.06
31204 H 172.41383243172183 99.17290761964792 69.0324671527717 H 0.0 **** 0.06
31205 H 173.0418879455424 99.71995323394587 70.60574750802418 H 0.0 **** 0.06
31206 C 58.74235958028828 139.0183287543906 121.12053157295368 C 0.0 **** -0.24
31207 H 59.52389891339672 138.26525537454313 121.22259966824119 H 0.0 **** 0.06
31208 H 58.90056193252411 139.58409710806836 120.20225257029814 H 0.0 **** 0.06
31209 H 58.774280400302956 139.69479217225148 121.9744270211131 H 0.0 **** 0.06
31210 H 57.768695181192186 138.5278596828923 121.08232296956923 H 0.0 **** 0.06
31211 C 21.83697190953137 144.01783582963014 139.74040995718235 C 0.0 **** -0.24
31212 H 21.217345626728758 144.38022916695996 140.561402341786 H 0.0 **** 0.06
31213 H 22.081697016581643 142.96830655032687 139.90590334732258 H 0.0 **** 0.06
31214 H 22.755224127364897 144.6022035992617 139.6929095252528 H 0.0 **** 0.06
31215 H 21.29148801898714 144.12015603488425 138.80192498189928 H 0.0 **** 0.06
31216 C 142.81683787243435 92.55865622325744 25.92453252595854 C 0.0 **** -0.24
31217 H 143.14553561785522 93.24023242421556 26.70895958305863 H 0.0 **** 0.06
31218 H 143.672308347213 91.99227404080189 25.553480421729105 H 0.0 **** 0.06
31219 H 142.37711179990885 93.13030195895219 25.107100403655423 H 0.0 **** 0.06
31220 H 142.07441145595539 91.87110403204163 26.327934450406886 H 0.0 **** 0.06
31221 C 109.15899538132221 57.06212005707775 45.04696828479649 C 0.0 **** -0.24
31222 H 108.6046733430682 56.41707215730702 44.36568243324213 H 0.0 **** 0.06
31223 H 108.68100275786294 57.05253740065143 46.026150264203096 H 0.0 **** 0.06
31224 H 109.16850960756186 58.08034771194656 44.657276009028166 H 0.0 **** 0.06
31225 H 110.18273442792982 56.69815434843491 45.13777288355783 H 0.0 **** 0.06
31226 C 198.09925019202888 113.18731660527938 165.8282267800973 C 0.0 **** -0.24
31227 H 197.96065571034995 114.11627642683494 165.27537657305655 H 0.0 **** 0.06
31228 H 198.4567314170574 113.41180010958077 166.83282792232143 H 0.0 **** 0.06
31229 H 198.83050919132552 112.56386585569079 165.31259261142992 H 0.0 **** 0.06
31230 H 197.14943068879768 112.65699252531029 165.88992283323103 H 0.0 **** 0.06
31231 C 33.62259520754294 8.686562804285614 137.07725514442558 C 0.0 **** -0.24
31232 H 33.9773106297356 7.764460910639713 136.61720927990535 H 0.0 **** 0.06
31233 H 33.12051359247536 8.453856576469661 138.0161864493631 H 0.0 **** 0.06
31234 H 32.923388285884315 9.182997198495542 136.40358999943817 H 0.0 **** 0.06
31235 H 34.470217781080564 9.34498933238325 137.27065793261596 H 0.0 **** 0.06
31236 C 206.11384671395575 85.01694292214222 20.050329557032157 C 0.0 **** -0.24
31237 H 206.6509846461364 85.53831184096953 19.257984032762636 H 0.0 **** 0.06
31238 H 206.82591590796375 84.63672996341205 20.783570121242207 H 0.0 **** 0.06
31239 H 205.55368151010947 84.18538184744267 19.62212952303365 H 0.0 **** 0.06
31240 H 205.4242011408474 85.70738712940818 20.536356227416775 H 0.0 **** 0.06
31241 C 43.96546685496334 58.322521418319226 189.35352967261719 C 0.0 **** -0.24
31242 H 44.45931466802574 57.823604347295245 190.1875573913303 H 0.0 **** 0.06
31243 H 42.888035322852076 58.173083286859026 189.42846756066552 H 0.0 **** 0.06
31244 H 44.326727817480744 57.903340353966485 188.41441312504645 H 0.0 **** 0.06
31245 H 44.18700607398239 59.38941980461034 189.38567542221926 H 0.0 **** 0.06
31246 C 132.93877199368404 52.47593141418844 61.216914935770006 C 0.0 **** -0.24
31247 H 132.7534928060502 53.28678618518694 60.513406388192124 H 0.0 **** 0.06
31248 H 132.85175453885972 51.51998186110893 60.70076907812495 H 0.0 **** 0.06
31249 H 132.20674198030946 52.521441978442624 62.024582578672806 H 0.0 **** 0.06
31250 H 133.94239626458125 52.575954229465026 61.63120699403055 H 0.0 **** 0.06
31251 C 187.64477389953316 161.59161462763808 196.40812137347703 C 0.0 **** -0.24
31252 H 187.55346417417965 160.51192469248576 196.29230555367675 H 0.0 **** 0.06
31253 H 188.39677903176687 161.969440292638 195.7143885655443 H 0.0 **** 0.06
31254 H 187.9449912945738 161.8223274425055 197.43019781273193 H 0.0 **** 0.06
31255 H 186.6848347210533 162.06270267052906 196.19661731493377 H 0.0 **** 0.06
31256 C 153.49508325980412 44.167482515107395 11.178231715314908 C 0.0 **** -0.24
31257 H 154.341597813092 43.49771437442104 11.023154623255053 H 0.0 **** 0.06
31258 H 152.92349340161843 43.834559371415196 12.044309854575786 H 0.0 **** 0.06
31259 H 152.85814088032657 44.15692719649195 10.294486217288423 H 0.0 **** 0.06
31260 H 153.8610692422081 45.17965767102089 11.350652283384179 H 0.0 **** 0.06
31261 C 47.31666570780641 110.67991136602654 95.6297289765928 C 0.0 **** -0.24
31262 H 47.69286848191804 111.47544995248825 94.98631078299202 H 0.0 **** 0.06
31263 H 47.92705547103799 109.78665516719047 95.49717017445356 H 0.0 **** 0.06
31264 H 46.282604934612834 110.4573028525748 95.36583143945192 H 0.0 **** 0.06
31265 H 47.36510935151907 111.00138355714904 96.67046092692452 H 0.0 **** 0.06
31266 C 82.39127248899194 128.05339359756817 176.95879164532198 C 0.0 **** -0.24
31267 H 82.49130034851095 127.17325408464019 177.5940325469599 H 0.0 **** 0.06
31268 H 83.07850488118942 128.82711239499764 177.29933235926137 H 0.0 **** 0.06
31269 H 81.36830554020469 128.42586585026697 177.01228163099876 H 0.0 **** 0.06
31270 H 82.6264625814477 127.78585955664535 175.92828094351518 H 0.0 **** 0.06
31271 C 66.58859228985578 139.2686020141869 38.64885280857183 C 0.0 **** -0.24
31272 H 66.7158325907632 140.35066891307264 38.67787461777385 H 0.0 **** 0.06
31273 H 67.53823048763184 138.78403286854586 38.8772760666962 H 0.0 **** 0.06
31274 H 66.257574382944 138.96822723244816 37.65438396355532 H 0.0 **** 0.06
31275 H 65.84196150563638 138.97117149116508 39.385317808482114 H 0.0 **** 0.06
31276 C 193.28501974629944 35.70335955029995 97.36350204483348 C 0.0 **** -0.24
31277 H 193.5287987155578 35.69908197594633 96.30108797569072 H 0.0 **** 0.06
31278 H 192.42906276993844 36.356497625308535 97.53559928260275 H 0.0 **** 0.06
31279 H 194.140950677342 36.06784841806446 97.93110422543101 H 0.0 **** 0.06
31280 H 193.039472145373 34.69051299174673 97.68462722448821 H 0.0 **** 0.06
31281 C 213.5533172952436 2.7079594679373145 168.67106200561008 C 0.0 **** -0.24
31282 H 213.98677879502802 2.4528262444301916 169.63843851707605 H 0.0 **** 0.06
31283 H 212.67179150724866 2.0914637268850953 168.49489610512381 H 0.0 **** 0.06
31284 H 214.2874706215926 2.526922593722148 167.88522379039375 H 0.0 **** 0.06
31285 H 213.2688110193551 3.7596835062467804 168.6669576635868 H 0.0 **** 0.06
31286 C 204.0329470062636 138.20016992103103 171.44774508473373 C 0.0 **** -0.24
31287 H 205.11427975504844 138.33826626229217 171.41412891357928 H 0.0 **** 0.06
31288 H 203.68682864203572 138.2905847645847 172.4778015810959 H 0.0 **** 0.06
31289 H 203.7812108569797 137.21085948477935 171.06462640624102 H 0.0 **** 0.06
31290 H 203.55118125617707 138.96114149311154 170.83461773399995 H 0.0 **** 0.06
31291 C 148.77941382276202 41.08966740825569 16.026101131200704 C 0.0 **** -0.24
31292 H 148.91961106743236 42.10514308462716 16.397942545056736 H 0.0 **** 0.06
31293 H 149.28927922865898 40.387833599383896 16.686357684004577 H 0.0 **** 0.06
31294 H 149.19342488598784 41.01102626467062 15.02116803085255 H 0.0 **** 0.06
31295 H 147.71430451830508 40.85632887410246 16.000015506251515 H 0.0 **** 0.06
31296 C 78.98911080748535 201.00135732966763 203.88523804849535 C 0.0 **** -0.24
31297 H 79.84614948949654 200.38348179628633 203.61770738613194 H 0.0 **** 0.06
31298 H 79.13173911770419 201.40658846793747 204.8873223947285 H 0.0 **** 0.06
31299 H 78.08414020030678 200.39569038289645 203.86292536424182 H 0.0 **** 0.06
31300 H 78.89541403476649 201.82093576551262 203.17236832086007 H 0.0 **** 0.06
31301 C 52.9953594643213 104.5358055223184 202.18777995058832 C 0.0 **** -0.24
31302 H 53.99565043454848 104.46371738368283 201.76006693672454 H 0.0 **** 0.06
31303 H 52.27960067759733 104.05667132405866 201.51984738329674 H 0.0 **** 0.06
31304 H 52.73009106950923 105.584835659669 202.31411111886837 H 0.0 **** 0.06
31305 H 52.97923091833445 104.03764865465745 203.15731476028694 H 0.0 **** 0.06
31306 C 56.08416266242921 157.33892045429178 120.03405526724437 C 0.0 **** -0.24
31307 H 55.82141551938989 157.40446898697468 121.08993048103078 H 0.0 **** 0.06
31308 H 55.49311629498986 156.5553489187442 119.56025259533844 H 0.0 **** 0.06
31309 H 57.14384903759638 157.1046174899992 119.93724086398963 H 0.0 **** 0.06
31310 H 55.87836693890162 158.29347141409505 119.54859698850699 H 0.0 **** 0.06
31311 C 14.97961492047267 43.24682371929181 74.73830361289981 C 0.0 **** -0.24
31312 H 14.206039890798948 43.46089144749419 75.47593890357479 H 0.0 **** 0.06
31313 H 14.564597568154113 42.62286250790437 73.9476841621298 H 0.0 **** 0.06
31314 H 15.80578692608826 42.72326984469548 75.22027799900872 H 0.0 **** 0.06
31315 H 15.34224636317785 44.182184277964026 74.31182242711009 H 0.0 **** 0.06
31316 C 140.57644245751436 99.0272330759493 72.00468726669982 C 0.0 **** -0.24
31317 H 139.74096002669324 99.23068081857879 72.67540872944062 H 0.0 **** 0.06
31318 H 140.91578898573374 99.96183748503482 71.55530134000657 H 0.0 **** 0.06
31319 H 140.2536443414645 98.34335538121003 71.21993902360384 H 0.0 **** 0.06
31320 H 141.39340175042122 98.57675995988068 72.5669163962259 H 0.0 **** 0.06
31321 C 58.393384254252354 27.0962506954626 193.98644730479526 C 0.0 **** -0.24
31322 H 59.18384818456293 26.392116406368018 193.72878901128013 H 0.0 **** 0.06
31323 H 58.70451023691574 27.693264100428905 194.84406363189095 H 0.0 **** 0.06
31324 H 57.48450798781599 26.547830481025557 194.2345366876511 H 0.0 **** 0.06
31325 H 58.200842844308994 27.753051270052083 193.13778013954055 H 0.0 **** 0.06
31326 C 94.6446349732496 163.15509681360163 65.1807488854817 C 0.0 **** -0.24
31327 H 93.73816206403887 162.89039010893674 65.72400972667137 H 0.0 **** 0.06
31328 H 94.73000593864214 164.2406946635541 65.12390472101947 H 0.0 **** 0.06
31329 H 94.5996126081709 162.7405505590001 64.17416530282529 H 0.0 **** 0.06
31330 H 95.5120616205025 162.74895503680364 65.70272209822275 H 0.0 **** 0.06
31331 C 164.46325446036977 16.565318587636213 143.34743913511204 C 0.0 **** -0.24
31332 H 164.9507423401031 16.407710518712037 144.3099241548705 H 0.0 **** 0.06
31333 H 165.16076070203727 17.048218241179825 142.6625135067141 H 0.0 **** 0.06
31334 H 163.58764709809947 17.200098201054885 143.48292243395747 H 0.0 **** 0.06
31335 H 164.1559513288412 15.604072210638677 142.9349232770645 H 0.0 **** 0.06
31336 C 183.87761219276263 10.869136540568377 137.42833282718078 C 0.0 **** -0.24
31337 H 183.31082729665928 11.798518208467385 137.3685855140663 H 0.0 **** 0.06
31338 H 184.540674321812 10.90350173094643 138.2926810095994 H 0.0 **** 0.06
31339 H 184.46955484600434 10.746368518933195 136.52051287241778 H 0.0 **** 0.06
31340 H 183.18946877897557 10.030452821251288 137.5296214357615 H 0.0 **** 0.06
31341 C 104.19559168217806 177.43600424403053 109.13133484316313 C 0.0 **** -0.24
31342 H 104.2047427026399 177.42501288125953 110.22099973498774 H 0.0 **** 0.06
31343 H 104.86662095235836 176.66361552037887 108.75462736226467 H 0.0 **** 0.06
31344 H 104.52690107308389 178.41186103744334 108.77506702545213 H 0.0 **** 0.06
31345 H 103.1828415521641 177.2441253237281 108.77487753132635 H 0.0 **** 0.06
31346 C 199.02357513972018 216.52727617442494 74.24122360534056 C 0.0 **** -0.24
31347 H 199.03079731082624 215.50329870577366 74.6164264063679 H 0.0 **** 0.06
31348 H 198.23661645593106 217.09148742515515 74.74083727289468 H 0.0 **** 0.06
31349 H 198.83926811473876 216.51837042200697 73.16745792957624 H 0.0 **** 0.06
31350 H 199.988468025711 216.99326526014667 74.4404571945571 H 0.0 **** 0.06
31351 C 74.58474659587347 31.94934400553234 140.6728600715822 C 0.0 **** -0.24
31352 H 73.75648839436178 32.546902359993055 141.05371372049655 H 0.0 **** 0.06
31353 H 75.30720914520867 32.60267990591187 140.1813865313261 H 0.0 **** 0.06
31354 H 74.2073304452424 31.220180273282693 139.95599715860976 H 0.0 **** 0.06
31355 H 75.06747557217096 31.429956312236797 141.49981549448813 H 0.0 **** 0.06
31356 C 52.61759779046153 46.49889339680362 53.93490937212812 C 0.0 **** -0.24
31357 H 51.900486317666875 45.9601361101205 54.5538001934045 H 0.0 **** 0.06
31358 H 52.651613513762555 47.543720166294506 54.244762726636935 H 0.0 **** 0.06
31359 H 52.31128831538848 46.43940724552186 52.89067135578715 H 0.0 **** 0.06
31360 H 53.6047311378413 46.05240288899621 54.05131428869488 H 0.0 **** 0.06
31361 C 163.0139645743822 9.632571423253012 80.9922839281651 C 0.0 **** -0.24
31362 H 162.10550330259613 9.913178604212902 81.52563922365682 H 0.0 **** 0.06
31363 H 163.6651912774585 9.065676325187766 81.65894343356227 H 0.0 **** 0.06
31364 H 163.53097017955665 10.531631102438524 80.65617822742733 H 0.0 **** 0.06
31365 H 162.75410235608695 9.018818348064897 80.13038201390539 H 0.0 **** 0.06
31366 C 107.57605370928233 47.57140882242891 135.38313139796014 C 0.0 **** -0.24
31367 H 108.55778749169697 47.097014723398786 135.38010339970293 H 0.0 **** 0.06
31368 H 107.02337217571956 47.26600060699394 134.49423315063814 H 0.0 **** 0.06
31369 H 107.69641695636331 48.65498902357248 135.38224702622648 H 0.0 **** 0.06
31370 H 107.02834041820968 47.26704301209094 136.27461652324047 H 0.0 **** 0.06
31371 C 5.206369096924433 180.30807207032137 208.36231690046685 C 0.0 **** -0.24
31372 H 6.126518511295004 180.88415024812568 208.4685202622976 H 0.0 **** 0.06
31373 H 4.518576319685813 180.8405822671951 207.70478504782528 H 0.0 **** 0.06
31374 H 4.744819278243064 180.17741136124414 209.34165376756633 H 0.0 **** 0.06
31375 H 5.437203859204509 179.3325869931238 207.9358379557834 H 0.0 **** 0.06
31376 C 120.21251572436417 35.52997254194378 77.04399657387643 C 0.0 **** -0.24
31377 H 120.08785492896364 34.68223380040888 76.37009164509777 H 0.0 **** 0.06
31378 H 119.25246502102551 36.027615329995626 77.18374081260663 H 0.0 **** 0.06
31379 H 120.92715008283999 36.231978533665085 76.61521522459952 H 0.0 **** 0.06
31380 H 120.58241096199414 35.17717095057094 78.00652381037014 H 0.0 **** 0.06
31381 C 187.87885299798754 113.19160801642529 86.74704326524689 C 0.0 **** -0.24
31382 H 187.47166146970181 113.94346769618095 86.07154403804087 H 0.0 **** 0.06
31383 H 188.68045071410552 112.64871536514802 86.24640586709707 H 0.0 **** 0.06
31384 H 187.09091205013948 112.49464559634133 87.03247904435308 H 0.0 **** 0.06
31385 H 188.27209747670892 113.67945491748132 87.63912023693591 H 0.0 **** 0.06
31386 C 46.56648297956238 113.26912163251149 125.6441359330373 C 0.0 **** -0.24
31387 H 45.541126357672624 113.5798964009789 125.44295943567938 H 0.0 **** 0.06
31388 H 47.17724117942544 113.43748606344423 124.75692570804291 H 0.0 **** 0.06
31389 H 46.58016143546206 112.20932625635027 125.8985977124862 H 0.0 **** 0.06
31390 H 46.964656905460856 113.84850517433142 126.47670446530707 H 0.0 **** 0.06
31391 C 25.475193336355133 154.26484407138776 119.40724504473975 C 0.0 **** -0.24
31392 H 25.700779125417327 155.23656047935674 119.84672361491216 H 0.0 **** 0.06
31393 H 26.28544114979624 153.56942146379686 119.6279462602785 H 0.0 **** 0.06
31394 H 25.371029588437338 154.37029473272497 118.32712643218865 H 0.0 **** 0.06
31395 H 24.544422935309413 153.88346158062046 119.82693896892268 H 0.0 **** 0.06
31396 C 20.33324274639287 205.8996328664328 139.84494963192532 C 0.0 **** -0.24
31397 H 20.74871333556996 205.6886822595011 140.83102325523373 H 0.0 **** 0.06
31398 H 19.653187450299043 206.7487166378857 139.91237868829427 H 0.0 **** 0.06
31399 H 19.789338762977877 205.02578682338327 139.4859054971073 H 0.0 **** 0.06
31400 H 21.14101187481161 206.13369441103484 139.1528901451012 H 0.0 **** 0.06
31401 C 80.6758128123983 122.72597814802104 59.106468841586434 C 0.0 **** -0.24
31402 H 80.2613367301351 121.81438069241521 59.536382536125245 H 0.0 **** 0.06
31403 H 81.63343102465291 122.94705941150896 59.57752676383598 H 0.0 **** 0.06
31404 H 79.98608586537324 123.5538126388286 59.27657458127584 H 0.0 **** 0.06
31405 H 80.82001253404059 122.58897543964223 58.03493124123548 H 0.0 **** 0.06
31406 C 61.16788100975094 176.08452371193175 214.27428402401426 C 0.0 **** -0.24
31407 H 61.080145657870105 176.13943836099975 213.18902228929278 H 0.0 **** 0.06
31408 H 61.644279540074734 175.14415711018682 214.55280376015295 H 0.0 **** 0.06
31409 H 60.17519524573649 176.13598170666506 214.72160849969458 H 0.0 **** 0.06
31410 H 61.7711274412751 176.91768049794476 214.63286682423754 H 0.0 **** 0.06
31411 C 170.85546932850906 183.35833260234813 25.230978693990778 C 0.0 **** -0.24
31412 H 170.35362898527953 182.3943079908766 25.32260281812748 H 0.0 **** 0.06
31413 H 171.6679907600587 183.27673376351066 24.50838565189963 H 0.0 **** 0.06
31414 H 171.2578474751375 183.6517419446924 26.20001063528963 H 0.0 **** 0.06
31415 H 170.1410711861123 184.10812402142005 24.89108862609004 H 0.0 **** 0.06
31416 C 128.34817479481387 107.21877990080178 93.05296747923073 C 0.0 **** -0.24
31417 H 128.97941775819498 107.65758666480151 93.82560651513744 H 0.0 **** 0.06
31418 H 128.96569869729296 106.64129668433311 92.36508122434533 H 0.0 **** 0.06
31419 H 127.83958923010577 108.01261673913744 92.50558558306902 H 0.0 **** 0.06
31420 H 127.60949934438388 106.56447496124504 93.51562259553445 H 0.0 **** 0.06
31421 C 73.56274784904406 15.265329946092521 180.6666586510382 C 0.0 **** -0.24
31422 H 73.6908438430541 15.483763498957273 181.72730861821464 H 0.0 **** 0.06
31423 H 74.2317424126889 15.896407345377867 180.08166572343777 H 0.0 **** 0.06
31424 H 72.53003241442809 15.463408415845436 180.37798945642257 H 0.0 **** 0.06
31425 H 73.79716216114474 14.217130758739643 180.48144923334922 H 0.0 **** 0.06
31426 C 133.98042555803386 59.45343722364652 102.27060579170164 C 0.0 **** -0.24
31427 H 133.63096957340161 60.09870304499492 101.46396542008408 H 0.0 **** 0.06
31428 H 133.2586233641225 59.47182349526935 103.08795742749571 H 0.0 **** 0.06
31429 H 134.94536122259115 59.810967672586685 102.62910302590744 H 0.0 **** 0.06
31430 H 134.0849342170938 58.4333487988597 101.90016727717408 H 0.0 **** 0.06
31431 C 180.52182435557438 160.25707642600375 74.2447593748056 C 0.0 **** -0.24
31432 H 181.29514506439088 160.07260279651047 74.99043068150593 H 0.0 **** 0.06
31433 H 179.65474744976612 159.63249960292063 74.45902921292156 H 0.0 **** 0.06
31434 H 180.90867255671964 160.0150965755299 73.25374454372832 H 0.0 **** 0.06
31435 H 180.23128787012297 161.30695457254436 74.27406047933977 H 0.0 **** 0.06
31436 C 46.01349766376052 43.883381803900875 22.523974654246516 C 0.0 **** -0.24
31437 H 46.241663772353334 44.291067174639636 21.538010131122206 H 0.0 **** 0.06
31438 H 44.93778575281874 43.92641374574731 22.694107751462553 H 0.0 **** 0.06
31439 H 46.52730801949056 44.4693629162893 23.28618538295423 H 0.0 **** 0.06
31440 H 46.34982546028368 42.84772491091479 22.574249420318026 H 0.0 **** 0.06
31441 C 52.86708880855093 186.61775437598797 0.6730452530366335 C 0.0 **** -0.24
31442 H 53.75218774964674 186.24395991522573 0.15759718173114834 H 0.0 **** 0.06
31443 H 53.063697157428464 186.6616649995771 1.74535499859374 H 0.0 **** 0.06
31444 H 52.026942668010804 185.94990087254672 0.48367447674951336 H 0.0 **** 0.06
31445 H 52.62864248732791 187.61637953628707 0.30626836338220187 H 0.0 **** 0.06
31446 C 170.66054465287868 183.6157540272232 80.36085013264346 C 0.0 **** -0.24
31447 H 170.8708410227424 183.8232474126239 81.40969142458363 H 0.0 **** 0.06
31448 H 170.82583992886782 182.55693946452448 80.15941194057359 H 0.0 **** 0.06
31449 H 171.32051271170383 184.21269130555163 79.73208374589848 H 0.0 **** 0.06
31450 H 169.62284846619036 183.86984721807858 80.14162095166631 H 0.0 **** 0.06
31451 C 174.42058064147702 50.750130238221715 135.08150311958912 C 0.0 **** -0.24
31452 H 174.98370708426873 50.4503470555065 134.19723573743636 H 0.0 **** 0.06
31453 H 175.10803216564975 51.13034168391192 135.83752878429414 H 0.0 **** 0.06
31454 H 173.88184172840153 49.889300480805545 135.47748499844295 H 0.0 **** 0.06
31455 H 173.71007001040812 51.530781860831226 134.81090413006672 H 0.0 **** 0.06
31456 C 10.851761664707851 36.78357230634093 25.989612353071948 C 0.0 **** -0.24
31457 H 11.01103795641015 37.85966589570968 25.911108784214548 H 0.0 **** 0.06
31458 H 10.015646584949025 36.49292494699503 25.35437554257686 H 0.0 **** 0.06
31459 H 10.63006403316433 36.52420846493261 27.024504948014965 H 0.0 **** 0.06
31460 H 11.752717889014377 36.25920019004924 25.66892882320252 H 0.0 **** 0.06
31461 C 12.531709592630875 58.13638992766076 20.125811099235236 C 0.0 **** -0.24
31462 H 12.827802404296278 57.19113221915829 19.66945699246837 H 0.0 **** 0.06
31463 H 13.207293988656204 58.369081440050394 20.948897679954598 H 0.0 **** 0.06
31464 H 11.512895811981991 58.053782125992214 20.503585579894064 H 0.0 **** 0.06
31465 H 12.580106556055313 58.929697730921475 19.380340383462155 H 0.0 **** 0.06
31466 C 44.85625806711141 29.2742796733111 101.45429223330427 C 0.0 **** -0.24
31467 H 43.81317257219945 29.038648770394744 101.24143341304227 H 0.0 **** 0.06
31468 H 45.41921837942948 28.349215398668903 101.57906367820038 H 0.0 **** 0.06
31469 H 44.91607414572712 29.863133199650463 102.36923359030976 H 0.0 **** 0.06
31470 H 45.27527291092355 29.84577330664399 100.6256483190071 H 0.0 **** 0.06
31471 C 196.77663897553577 85.96797081731411 44.52253486622209 C 0.0 **** -0.24
31472 H 197.0155730754273 84.90577058255424 44.57868022019096 H 0.0 **** 0.06
31473 H 196.9268508388527 86.32007712338348 43.5014880021854 H 0.0 **** 0.06
31474 H 197.42641918161485 86.5237846854124 45.19897981960992 H 0.0 **** 0.06
31475 H 195.73610497010176 86.12069703989592 44.810968290506764 H 0.0 **** 0.06
31476 C 61.40307751143244 98.60892605533063 152.04274855476592 C 0.0 **** -0.24
31477 H 61.54928849008549 99.23175338008566 152.92533317528267 H 0.0 **** 0.06
31478 H 60.36960363849299 98.2650364212072 152.00826957226775 H 0.0 **** 0.06
31479 H 62.072080780827505 97.74984766279421 152.08995101979605 H 0.0 **** 0.06
31480 H 61.622763964239155 99.1923879882916 151.14840679723324 H 0.0 **** 0.06
31481 C 190.6834365079919 205.77958692076987 46.20096436955531 C 0.0 **** -0.24
31482 H 190.2747019341152 206.67656925563654 45.734719915053375 H 0.0 **** 0.06
31483 H 190.03111023166994 205.46581618733723 47.01691444201661 H 0.0 **** 0.06
31484 H 191.67739258595952 205.99437709391543 46.5919856148178 H 0.0 **** 0.06
31485 H 190.74839539978814 204.98196001440203 45.46074223965665 H 0.0 **** 0.06
31486 C 7.04302016014222 165.4882397553524 111.52982988779155 C 0.0 **** -0.24
31487 H 7.735128432201577 164.65575204227522 111.65974716138169 H 0.0 **** 0.06
31488 H 6.132410664892092 165.13106751366306 111.0474933910491 H 0.0 **** 0.06
31489 H 7.50807599787197 166.2524133279489 110.90776804192058 H 0.0 **** 0.06
31490 H 6.797507291478013 165.91164687544776 112.50354184274579 H 0.0 **** 0.06
31491 C 186.7932673112984 31.36037768189837 86.79154326010973 C 0.0 **** -0.24
31492 H 186.4497290300434 32.37107077164582 86.57341016464267 H 0.0 **** 0.06
31493 H 186.5455272142716 31.10703261765795 87.82267432407087 H 0.0 **** 0.06
31494 H 187.87340691918087 31.306371354199683 86.65318542015802 H 0.0 **** 0.06
31495 H 186.30440608169775 30.657035984090015 86.11690313156731 H 0.0 **** 0.06
31496 C 151.44036178145058 8.40876110386344 128.7505391215206 C 0.0 **** -0.24
31497 H 151.81462606963066 7.397328978570698 128.59185567038253 H 0.0 **** 0.06
31498 H 151.4058220085485 8.936058579959195 127.79693043816515 H 0.0 **** 0.06
31499 H 152.1032023679914 8.937336118147243 129.43462751086963 H 0.0 **** 0.06
31500 H 150.43871838534534 8.362600535921928 129.17765133312884 H 0.0 **** 0.06
31501 C 1.760011103323393 95.11368216054957 32.028017853964755 C 0.0 **** -0.24
31502 H 1.1830205669051566 94.20349819800423 31.862874822842585 H 0.0 **** 0.06
31503 H 2.607712152106501 94.89319762877925 32.677253289088654 H 0.0 **** 0.06
31504 H 1.126125484662964 95.864101304019 32.49970128249569 H 0.0 **** 0.06
31505 H 2.1225294870846483 95.4915717817757 31.07226423236972 H 0.0 **** 0.06
31506 C 171.75601575862862 180.65760352354982 2.1649776491152295 C 0.0 **** -0.24
31507 H 171.3776029628496 181.67520490884283 2.257033597967393 H 0.0 **** 0.06
31508 H 172.4469918537032 180.6021426572746 1.3233106847017666 H 0.0 **** 0.06
31509 H 170.923433363965 179.9743954391927 1.99761157095611 H 0.0 **** 0.06
31510 H 172.27621114592324 180.3800742513473 3.0819642386240957 H 0.0 **** 0.06
31511 C 192.77566568596598 152.9671842309288 3.005715016891486 C 0.0 **** -0.24
31512 H 193.85990620444 153.07761180653904 3.018300023200652 H 0.0 **** 0.06
31513 H 192.44143015725427 152.5578354093622 3.9595799485474004 H 0.0 **** 0.06
31514 H 192.48917537472582 152.29055324104598 2.2001071994980634 H 0.0 **** 0.06
31515 H 192.31297391602754 153.94091504229488 2.8449457121599835 H 0.0 **** 0.06
31516 C 196.0869704897629 134.19609081041688 17.299567931899986 C 0.0 **** -0.24
31517 H 195.6326805896524 133.2158374236767 17.443610008304802 H 0.0 **** 0.06
31518 H 196.95355994736082 134.10177923125752 16.645084794858576 H 0.0 **** 0.06
31519 H 196.40054811008508 134.59691223549225 18.2627794222945 H 0.0 **** 0.06
31520 H 195.3598338680202 134.86885728431326 16.84493759814157 H 0.0 **** 0.06
31521 C 35.533204763454876 212.56258788389755 47.28678582116089 C 0.0 **** -0.24
31522 H 34.68933273945231 211.96541803449796 47.63249280279774 H 0.0 **** 0.06
31523 H 35.17478359683997 213.5345016909757 46.946640312449574 H 0.0 **** 0.06
31524 H 36.029084470980905 212.04903141446545 46.46353908253968 H 0.0 **** 0.06
31525 H 36.23808474359612 212.70199108250017 48.10698098930254 H 0.0 **** 0.06
31526 C 15.47690333416314 48.68849313314412 156.02433984013203 C 0.0 **** -0.24
31527 H 15.303561519044365 48.691523170185064 154.94830426107774 H 0.0 **** 0.06
31528 H 16.359750258237398 49.28638514706145 156.25116044998106 H 0.0 **** 0.06
31529 H 15.63538179230656 47.66458172440298 156.36329728155204 H 0.0 **** 0.06
31530 H 14.610167964345266 49.11028850687896 156.53317733609214 H 0.0 **** 0.06
31531 C 68.13077339728568 142.1326238990198 190.81163083595203 C 0.0 **** -0.24
31532 H 68.87551369954787 141.33624488608683 190.80575716668318 H 0.0 **** 0.06
31533 H 67.91611069907404 142.4356263053936 189.78671395712655 H 0.0 **** 0.06
31534 H 68.51571860862987 142.98498213075004 191.3705161085163 H 0.0 **** 0.06
31535 H 67.21678685010802 141.7705628448814 191.28287018967302 H 0.0 **** 0.06
31536 C 23.161314924803946 194.9875701851015 85.31786352129045 C 0.0 **** -0.24
31537 H 23.359555201707167 195.67564994138965 84.49674406627328 H 0.0 **** 0.06
31538 H 24.08573443767068 194.80089562668655 85.86593955494713 H 0.0 **** 0.06
31539 H 22.779155869503825 194.04781621524387 84.9196348638586 H 0.0 **** 0.06
31540 H 22.423562646246353 195.4255260426902 85.98859546679638 H 0.0 **** 0.06
31541 C 41.49414922621952 123.85472590258253 193.0485058124478 C 0.0 **** -0.24
31542 H 41.078480091111146 124.85973072396497 192.97888822620845 H 0.0 **** 0.06
31543 H 40.7285200491458 123.17026495997821 193.41623716603178 H 0.0 **** 0.06
31544 H 42.339555444776806 123.8576258324256 193.73649131498652 H 0.0 **** 0.06
31545 H 41.82780669502125 123.5312033590072 192.06238817271608 H 0.0 **** 0.06
31546 C 20.41653585090515 61.90537062393966 122.08518390721623 C 0.0 **** -0.24
31547 H 19.805326568313774 61.400013585112674 122.83249548986818 H 0.0 **** 0.06
31548 H 19.919665555726084 61.85507111239609 121.11547104582671 H 0.0 **** 0.06
31549 H 21.389417664905295 61.418174544633416 122.02137881309521 H 0.0 **** 0.06
31550 H 20.550673334475334 62.9491552002834 122.37147580904788 H 0.0 **** 0.06
31551 C 206.75238951190556 90.70216397745007 206.97402600919284 C 0.0 **** -0.24
31552 H 207.53882958734738 91.37826782152551 207.3116008322305 H 0.0 **** 0.06
31553 H 205.86397708323716 90.84288280613684 207.58943294727922 H 0.0 **** 0.06
31554 H 207.09721786400996 89.672126928509 207.06334688001363 H 0.0 **** 0.06
31555 H 206.51177458951574 90.91580499225954 205.9326153735188 H 0.0 **** 0.06
31556 C 212.90391353917133 120.1427720010588 11.099040846550423 C 0.0 **** -0.24
31557 H 212.45713734740906 120.50315108353891 10.172052659093836 H 0.0 **** 0.06
31558 H 213.22480692426785 119.10935779319954 10.970741841176846 H 0.0 **** 0.06
31559 H 212.16762061206865 120.19889877815069 11.90179839032082 H 0.0 **** 0.06
31560 H 213.76460742481092 120.7629345683909 11.351107456878125 H 0.0 **** 0.06
31561 C 193.06616706158565 183.75069011029188 48.81854583563984 C 0.0 **** -0.24
31562 H 193.84664007076339 183.01203920948814 48.63414714731212 H 0.0 **** 0.06
31563 H 192.95261015247593 184.38630180988304 47.939740538128774 H 0.0 **** 0.06
31564 H 193.3420762643372 184.36262302055172 49.67755187067257 H 0.0 **** 0.06
31565 H 192.12486758674135 183.240527755443 49.02249387723124 H 0.0 **** 0.06
31566 C 109.59230787715354 100.88324197059687 165.3195017032688 C 0.0 **** -0.24
31567 H 110.31898318830189 100.56657828675442 166.0674831436747 H 0.0 **** 0.06
31568 H 109.59772275801772 101.97140536311171 165.2463424913872 H 0.0 **** 0.06
31569 H 108.59832876398154 100.54384949538193 165.61209599356127 H 0.0 **** 0.06
31570 H 109.85293494217923 100.45265849579967 164.35312728012315 H 0.0 **** 0.06
31571 C 24.369793679273812 194.02853031758457 32.95622569331937 C 0.0 **** -0.24
31572 H 25.302922338634005 193.47374846557113 33.054740364112206 H 0.0 **** 0.06
31573 H 24.282790606557285 194.41594148341585 31.94091529864636 H 0.0 **** 0.06
31574 H 24.363078682678292 194.85632297622521 33.66440034526494 H 0.0 **** 0.06
31575 H 23.530129000625095 193.36480866277128 33.16506521840191 H 0.0 **** 0.06
31576 C 9.641708320452537 85.96647967971894 188.92227434122825 C 0.0 **** -0.24
31577 H 10.571327409701254 86.38228725424064 189.3118517524615 H 0.0 **** 0.06
31578 H 9.479569206342603 84.97672321262546 189.3489524140041 H 0.0 **** 0.06
31579 H 9.705999472234339 85.8880362688693 187.83685303074859 H 0.0 **** 0.06
31580 H 8.811255110812468 86.61873950184166 189.19094461079524 H 0.0 **** 0.06
31581 C 39.03934326695321 213.44125679179695 89.26895770713516 C 0.0 **** -0.24
31582 H 38.64539418936897 214.32338423704886 89.77481979364062 H 0.0 **** 0.06
31583 H 38.95163087160887 212.57656144362036 89.92789143091552 H 0.0 **** 0.06
31584 H 40.08798434206892 213.60331213527905 89.02052242404478 H 0.0 **** 0.06
31585 H 38.473107665060866 213.2622809442239 88.35622829181675 H 0.0 **** 0.06
31586 C 19.650422390773315 110.40490158258145 16.389147655992105 C 0.0 **** -0.24
31587 H 18.679292190211385 110.17320855370106 15.95105563287916 H 0.0 **** 0.06
31588 H 20.18413283820871 111.10133534312565 15.742465112930603 H 0.0 **** 0.06
31589 H 20.229901773628768 109.4869475351842 16.492323064693267 H 0.0 **** 0.06
31590 H 19.507241513863107 110.85623909801235 17.371220377324278 H 0.0 **** 0.06
31591 C 37.70075458998852 191.64936810712092 67.87836707314133 C 0.0 **** -0.24
31592 H 37.406433001972445 190.84945724717127 68.55691002336292 H 0.0 **** 0.06
31593 H 37.93127223899624 192.54650613685044 68.45231314553686 H 0.0 **** 0.06
31594 H 36.88339598654427 191.85941187195587 67.18834339914102 H 0.0 **** 0.06
31595 H 38.58235434356487 191.34180735184862 67.31458837601119 H 0.0 **** 0.06
31596 C 96.08155100154549 213.25069272958655 31.977352463970533 C 0.0 **** -0.24
31597 H 95.24493772637071 213.69913941748663 32.512563564354906 H 0.0 **** 0.06
31598 H 96.25760406391082 212.2442983218139 32.35788992715966 H 0.0 **** 0.06
31599 H 96.97484227038213 213.85734410434293 32.1245052672179 H 0.0 **** 0.06
31600 H 95.84746735090611 213.2006066910829 30.91332878342932 H 0.0 **** 0.06
31601 C 199.45246510964574 174.76458088504805 126.38558484324221 C 0.0 **** -0.24
31602 H 200.541107416954 174.76783397815566 126.42097484206181 H 0.0 **** 0.06
31603 H 199.0732007553705 173.8934591537552 126.92046298557398 H 0.0 **** 0.06
31604 H 199.12323670073306 174.72522233650287 125.34662780967375 H 0.0 **** 0.06
31605 H 199.0713390678555 175.67208414080883 126.85328871175636 H 0.0 **** 0.06
31606 C 173.38550811810978 123.82879582961253 201.05709552601448 C 0.0 **** -0.24
31607 H 174.0769716186708 124.51218174814697 200.56350453975375 H 0.0 **** 0.06
31608 H 172.82397151653862 124.36922249336207 201.81991255697523 H 0.0 **** 0.06
31609 H 173.94737325943282 123.01928749757126 201.52384703667698 H 0.0 **** 0.06
31610 H 172.69605186061932 123.4165660207647 200.32062707250083 H 0.0 **** 0.06
31611 C 137.4534999027902 42.30523572951769 62.83289438279496 C 0.0 **** -0.24
31612 H 138.27128646610652 43.009663965508864 62.987659198426115 H 0.0 **** 0.06
31613 H 137.10066681062239 42.3784292444912 61.80398395815996 H 0.0 **** 0.06
31614 H 136.63746953756106 42.54084283465693 63.515411677212114 H 0.0 **** 0.06
31615 H 137.80737771466642 41.29183210394204 63.02487547312444 H 0.0 **** 0.06
31616 C 151.8975610687603 13.21722969233332 134.92245826621985 C 0.0 **** -0.24
31617 H 152.29252075869607 14.145128810621202 135.33531319839807 H 0.0 **** 0.06
31618 H 152.02138113928544 13.22060601944159 133.8389674506496 H 0.0 **** 0.06
31619 H 150.83810889549738 13.13352107035277 135.16734419493628 H 0.0 **** 0.06
31620 H 152.43762563818626 12.371950361277072 135.3475773430718 H 0.0 **** 0.06
31621 C 105.6857529921481 155.62415560900024 158.0066165071678 C 0.0 **** -0.24
31622 H 104.81844013773248 155.74361749238756 157.3575422413707 H 0.0 **** 0.06
31623 H 106.06233363900164 154.6039990877975 157.92531556654922 H 0.0 **** 0.06
31624 H 105.39610615425171 155.82423713583267 159.0384232895726 H 0.0 **** 0.06
31625 H 106.46375111432526 156.32502710648015 157.70569926807138 H 0.0 **** 0.06
31626 C 211.115508188369 93.2764325206871 138.59319362234004 C 0.0 **** -0.24
31627 H 210.0990865664515 93.10144151319248 138.9458639650141 H 0.0 **** 0.06
31628 H 211.1052018931848 94.0524111768933 137.82758925513673 H 0.0 **** 0.06
31629 H 211.51812523284414 92.35537035005082 138.17176138664752 H 0.0 **** 0.06
31630 H 211.7389447757763 93.59730474868014 139.42851331759846 H 0.0 **** 0.06
31631 C 178.16758135042505 177.82746306631296 75.7327858931648 C 0.0 **** -0.24
31632 H 177.70592070754765 176.8594103869952 75.9290321895475 H 0.0 **** 0.06
31633 H 178.38715624334958 177.91572960875897 74.66888833380655 H 0.0 **** 0.06
31634 H 179.09189667805884 177.91016268091815 76.30341016850078 H 0.0 **** 0.06
31635 H 177.4842823784673 178.62265932599342 76.0303452227811 H 0.0 **** 0.06
31636 C 191.1215423232949 90.95622611981211 111.89339754221608 C 0.0 **** -0.24
31637 H 190.91443238777296 89.88730104512716 111.83487566735378 H 0.0 **** 0.06
31638 H 191.9048928087876 91.21355164949397 111.18059271433764 H 0.0 **** 0.06
31639 H 191.4494114329678 91.20714550708455 112.90289566956737 H 0.0 **** 0.06
31640 H 190.21593956716177 91.51428539947561 111.65660519246465 H 0.0 **** 0.06
31641 C 71.95260408980437 2.1058922908095496 106.87957294706949 C 0.0 **** -0.24
31642 H 70.97488222327007 1.7062828456424768 107.14596054824902 H 0.0 **** 0.06
31643 H 71.85465327976101 3.159313360127669 106.61389860468769 H 0.0 **** 0.06
31644 H 72.35128428074927 1.5529723118696381 106.029239052264 H 0.0 **** 0.06
31645 H 72.62873922584328 2.0060175511821114 107.72769995578004 H 0.0 **** 0.06
31646 C 77.5301746943815 27.487003532691006 58.97121687846446 C 0.0 **** -0.24
31647 H 78.5502907369545 27.561214729402025 59.3484039672031 H 0.0 **** 0.06
31648 H 77.34564135202687 26.47105841604977 58.62053736617489 H 0.0 **** 0.06
31649 H 77.39608627140542 28.1870717742309 58.14630300635724 H 0.0 **** 0.06
31650 H 76.82930034225107 27.729288728563972 59.770733095219924 H 0.0 **** 0.06
31651 C 141.36226883931369 200.42616173963543 55.15494591735691 C 0.0 **** -0.24
31652 H 141.9901060657425 201.15738210228767 54.64577371142258 H 0.0 **** 0.06
31653 H 140.35864045341538 200.45009267531051 54.72762923192067 H 0.0 **** 0.06
31654 H 141.31182523597948 200.667161801445 56.21630096292961 H 0.0 **** 0.06
31655 H 141.78770787489594 199.43084525291582 55.02731029441401 H 0.0 **** 0.06
31656 C 202.19368220958316 23.262572780480497 93.45432035608867 C 0.0 **** -0.24
31657 H 202.90687845510638 22.88385433813842 94.18561548977858 H 0.0 **** 0.06
31658 H 202.56142100455133 23.05696364287141 92.44827153821434 H 0.0 **** 0.06
31659 H 202.07625356697423 24.338859532522235 93.58593153225475 H 0.0 **** 0.06
31660 H 201.2308886879037 22.77217070558379 93.59720342876808 H 0.0 **** 0.06
31661 C 177.14071434660468 214.08999271802793 46.76741683563331 C 0.0 **** -0.24
31662 H 176.6424644144472 213.98622265064574 45.80242774198611 H 0.0 **** 0.06
31663 H 178.22113638829308 214.0545772043676 46.62308003553089 H 0.0 **** 0.06
31664 H 176.8342666649199 213.2758496693196 47.42332157853403 H 0.0 **** 0.06
31665 H 176.86444860038858 215.04364546686142 47.21714987605438 H 0.0 **** 0.06
31666 C 7.904515905349058 19.074498793506677 140.69734430346693 C 0.0 **** -0.24
31667 H 7.505653563566966 19.787606288010863 139.9750260276939 H 0.0 **** 0.06
31668 H 7.108757470076057 18.760439565614988 141.37362343935507 H 0.0 **** 0.06
31669 H 8.703448044442098 19.54533866886247 141.26956049853055 H 0.0 **** 0.06
31670 H 8.297767485089622 18.206227575569827 140.16931077117044 H 0.0 **** 0.06
31671 C 105.35377685695333 89.32629168239077 205.20028904131132 C 0.0 **** -0.24
31672 H 106.36287519299152 89.53802338978852 205.55606199665715 H 0.0 **** 0.06
31673 H 104.62904295476388 89.66876973179461 205.93870267063846 H 0.0 **** 0.06
31674 H 105.24031616708548 88.25212816337364 205.04874508916978 H 0.0 **** 0.06
31675 H 105.18577442928704 89.84641902434663 204.25690318185883 H 0.0 **** 0.06
31676 C 75.3009561458183 27.692500511341308 131.91046411917023 C 0.0 **** -0.24
31677 H 75.06377818274018 26.683583020345722 131.5740384452056 H 0.0 **** 0.06
31678 H 75.68046699800806 27.654217700790113 132.9319684465072 H 0.0 **** 0.06
31679 H 74.40163445755269 28.306819509351712 131.87930661582715 H 0.0 **** 0.06
31680 H 76.05913637482496 28.124668499022405 131.2568107550531 H 0.0 **** 0.06
31681 C 81.9137071029083 153.99957931882454 18.597663214041503 C 0.0 **** -0.24
31682 H 81.69020287101283 153.82071700958016 17.54540978086426 H 0.0 **** 0.06
31683 H 82.13343359065168 155.05719042268004 18.746636955680017 H 0.0 **** 0.06
31684 H 82.7788857740765 153.4035456980954 18.890213975728727 H 0.0 **** 0.06
31685 H 81.05450246476308 153.71630834049034 19.204668205301218 H 0.0 **** 0.06
31686 C 114.49065347914531 101.92926385538077 162.30750218826915 C 0.0 **** -0.24
31687 H 114.95469581089061 101.68363104574316 161.3529031342319 H 0.0 **** 0.06
31688 H 113.40645757736753 101.95163244071126 162.18979042581498 H 0.0 **** 0.06
31689 H 114.84022297818167 102.90649067450074 162.64048573905336 H 0.0 **** 0.06
31690 H 114.76002576694624 101.17578975177621 163.04737074107726 H 0.0 **** 0.06
31691 C 167.5482283827148 113.50417182676192 116.31113475391759 C 0.0 **** -0.24
31692 H 166.8862345305838 113.97130206458648 115.58219057753054 H 0.0 **** 0.06
31693 H 168.52284123276203 113.99288644719336 116.28229080491063 H 0.0 **** 0.06
31694 H 167.664986876122 112.44790106321996 116.07018527164063 H 0.0 **** 0.06
31695 H 167.12064415570484 113.60486899038018 117.30856442169569 H 0.0 **** 0.06
31696 C 196.5071282545728 34.60624110035512 65.82535579407772 C 0.0 **** -0.24
31697 H 196.26655542436217 34.94730378057778 66.83226050525911 H 0.0 **** 0.06
31698 H 196.20058652516013 33.56664307978882 65.70984709334948 H 0.0 **** 0.06
31699 H 197.58210338757806 34.68833291825935 65.66120783322975 H 0.0 **** 0.06
31700 H 195.98073438312488 35.22391825676654 65.0969557820585 H 0.0 **** 0.06
31701 C 49.378462409263975 177.63618198842767 204.92165203626726 C 0.0 **** -0.24
31702 H 50.24810374000343 177.80183373663812 205.55672807329412 H 0.0 **** 0.06
31703 H 49.37693783068622 178.36595979567088 204.11022661560204 H 0.0 **** 0.06
31704 H 48.47054712619803 177.74918922856682 205.51374352539386 H 0.0 **** 0.06
31705 H 49.418035612478164 176.62984761589559 204.5046733441874 H 0.0 **** 0.06
31706 C 41.72703327996658 10.441669733958463 81.0291203902126 C 0.0 **** -0.24
31707 H 41.835751498351215 9.479406905649626 81.52933307784429 H 0.0 **** 0.06
31708 H 40.776925391834766 10.89466363225398 81.31467194157426 H 0.0 **** 0.06
31709 H 41.749781014506226 10.294403373980032 79.94922025533356 H 0.0 **** 0.06
31710 H 42.54567521517416 11.098205023950243 81.32325628609806 H 0.0 **** 0.06
31711 C 60.01578565417309 58.79625607602679 83.05806046182283 C 0.0 **** -0.24
31712 H 59.71665726590102 58.673498490802785 84.09866601027778 H 0.0 **** 0.06
31713 H 61.021815742493985 58.400875320373416 82.92077738934631 H 0.0 **** 0.06
31714 H 60.001021584385626 59.85454905051154 82.79821024987785 H 0.0 **** 0.06
31715 H 59.32170349433426 58.254055807215366 82.41440294950826 H 0.0 **** 0.06
31716 C 83.54938255863435 159.85654835295668 5.328964250526198 C 0.0 **** -0.24
31717 H 83.64367127106227 160.06532032494698 4.263588716318438 H 0.0 **** 0.06
31718 H 84.28063414311517 160.4480458909338 5.881110012516288 H 0.0 **** 0.06
31719 H 83.72935199367448 158.79620976862907 5.508998255451473 H 0.0 **** 0.06
31720 H 82.54489517740247 160.11613343405998 5.663008889679887 H 0.0 **** 0.06
31721 C 192.3957094312534 48.51996951531369 56.734047021628044 C 0.0 **** -0.24
31722 H 192.25646893358856 47.51296359400084 56.33916056119347 H 0.0 **** 0.06
31723 H 192.21866023145782 48.515531837364165 57.81016367255506 H 0.0 **** 0.06
31724 H 191.69275776092846 49.19935469869628 56.25212912834479 H 0.0 **** 0.06
31725 H 193.4155775284177 48.84989402824266 56.53496657183911 H 0.0 **** 0.06
31726 C 177.5872013195685 15.146054871642434 165.3494351042537 C 0.0 **** -0.24
31727 H 177.1061747270603 16.07831418782996 165.64590791281762 H 0.0 **** 0.06
31728 H 177.30230205154524 14.355245329457489 166.04299534154964 H 0.0 **** 0.06
31729 H 178.66933001396592 15.274374346209811 165.36767606809002 H 0.0 **** 0.06
31730 H 177.2697523925577 14.878390785415235 164.3412861748469 H 0.0 **** 0.06
31731 C 216.6966558054786 27.122066200057134 115.11577205928695 C 0.0 **** -0.24
31732 H 215.82963007206558 26.606000758598242 114.70165492739268 H 0.0 **** 0.06
31733 H 216.71422568917964 26.989191334428313 116.19778301868827 H 0.0 **** 0.06
31734 H 216.63382865647785 28.18409129776751 114.88094966060747 H 0.0 **** 0.06
31735 H 217.60629967449813 26.70595843326629 114.68364767728006 H 0.0 **** 0.06
31736 C 167.907106100441 200.0782644859202 152.6999158861073 C 0.0 **** -0.24
31737 H 167.8369611981588 199.95817625477977 151.6183727003742 H 0.0 **** 0.06
31738 H 168.14203261857966 199.11683823034252 153.15698943452566 H 0.0 **** 0.06
31739 H 166.95483583451175 200.44199554384178 153.08720674827777 H 0.0 **** 0.06
31740 H 168.69267795854063 200.79487618865684 152.9361184090988 H 0.0 **** 0.06
31741 C 143.5243986246606 215.3930216091833 153.8537163531721 C 0.0 **** -0.24
31742 H 143.2482242237719 214.35413242809858 154.03515260317295 H 0.0 **** 0.06
31743 H 143.04657460341622 215.74040039297876 152.937866301962 H 0.0 **** 0.06
31744 H 144.60713069855126 215.46826307044665 153.75105612607092 H 0.0 **** 0.06
31745 H 143.19543722543028 216.00716953472755 154.69146085174287 H 0.0 **** 0.06
31746 C 159.31356290517903 52.197542553480986 171.78908010822826 C 0.0 **** -0.24
31747 H 158.89847549632788 52.78174594286217 172.60951350331612 H 0.0 **** 0.06
31748 H 159.77904600811354 52.86741880280056 171.0657569185957 H 0.0 **** 0.06
31749 H 158.51634220000398 51.63580243059933 171.3029717801992 H 0.0 **** 0.06
31750 H 160.06076410963988 51.50573394022737 172.1773188639844 H 0.0 **** 0.06
31751 C 61.408602254705215 212.4012852167739 42.76503344442138 C 0.0 **** -0.24
31752 H 60.6651590613028 213.1845173223639 42.6128038661753 H 0.0 **** 0.06
31753 H 61.01359094435017 211.65614397042646 43.45619098002105 H 0.0 **** 0.06
31754 H 62.31630859100426 212.83909289775363 43.18266343699575 H 0.0 **** 0.06
31755 H 61.63838375358705 211.92845372795105 41.81105600523884 H 0.0 **** 0.06
31756 C 185.7296226587087 138.30093462448593 39.7153367010975 C 0.0 **** -0.24
31757 H 186.3145158438581 137.58662001694654 40.29440900466153 H 0.0 **** 0.06
31758 H 184.69788726895615 137.95480801852057 39.64620196970915 H 0.0 **** 0.06
31759 H 186.15178519701777 138.38996896571308 38.71425587642432 H 0.0 **** 0.06
31760 H 185.75474706536062 139.27343950168802 40.208376444023116 H 0.0 **** 0.06
31761 C 191.76841400563234 73.69325080747139 101.54218709571705 C 0.0 **** -0.24
31762 H 191.89329027483726 73.30599292781692 100.5299137011911 H 0.0 **** 0.06
31763 H 191.77549574496734 74.78315350618958 101.51752740239806 H 0.0 **** 0.06
31764 H 192.58561280548543 73.33792914320092 102.16915659822376 H 0.0 **** 0.06
31765 H 190.81998164940262 73.34429960392653 101.94918001956148 H 0.0 **** 0.06
31766 C 201.90410614818842 8.134890230550425 60.04632290402418 C 0.0 **** -0.24
31767 H 202.12898043289897 8.229221736864488 58.98453420629255 H 0.0 **** 0.06
31768 H 202.82182974016038 8.251020147371648 60.62336224198782 H 0.0 **** 0.06
31769 H 201.473717588667 7.1524757261038445 60.24072858044792 H 0.0 **** 0.06
31770 H 201.19234801136218 8.907710049430179 60.336453939205 H 0.0 **** 0.06
31771 C 73.14933255829946 59.97577876983621 34.29411114075347 C 0.0 **** -0.24
31772 H 73.2086708480981 60.70708323772118 33.48715209400207 H 0.0 **** 0.06
31773 H 72.48686298901082 59.1623880938584 33.99901148747395 H 0.0 **** 0.06
31774 H 72.75859951844855 60.45573137012036 35.190572687855834 H 0.0 **** 0.06
31775 H 74.14456036879103 59.5794264688617 34.497506346314566 H 0.0 **** 0.06
31776 C 213.50295589519087 206.68742567169082 158.57491349160443 C 0.0 **** -0.24
31777 H 212.98228757093366 207.21921957390882 157.77851291449815 H 0.0 **** 0.06
31778 H 213.59575877365683 205.63450405606432 158.30857754724394 H 0.0 **** 0.06
31779 H 212.9375951271858 206.78021645484688 159.5026711237731 H 0.0 **** 0.06
31780 H 214.49483422648 207.11765935533225 158.71065765276373 H 0.0 **** 0.06
31781 C 145.42058215861823 48.64757534718645 13.541750397365803 C 0.0 **** -0.24
31782 H 145.94714401984544 48.98149535280707 12.647949991724545 H 0.0 **** 0.06
31783 H 144.82615407886613 49.471282125324365 13.94118824484761 H 0.0 **** 0.06
31784 H 146.14321903630116 48.32438938366943 14.291162110323143 H 0.0 **** 0.06
31785 H 144.76370497891293 47.815807624447984 13.287347248999453 H 0.0 **** 0.06
31786 C 114.75921274383971 172.7369041118278 104.83996516705479 C 0.0 **** -0.24
31787 H 115.52127125712612 172.53252073876723 105.59103398581321 H 0.0 **** 0.06
31788 H 115.17132725804704 172.55822946461853 103.84635953615624 H 0.0 **** 0.06
31789 H 114.4410982020933 173.77696104670838 104.91926753693626 H 0.0 **** 0.06
31790 H 113.90380415317931 172.0819985528599 105.00115128046558 H 0.0 **** 0.06
31791 C 52.55513685888934 39.115663564359636 111.5788678676437 C 0.0 **** -0.24
31792 H 52.43008217185508 38.94716295959216 112.64846686147611 H 0.0 **** 0.06
31793 H 53.61847470944272 39.16230725400169 111.34023185317629 H 0.0 **** 0.06
31794 H 52.07910505443698 40.05587859447178 111.30059542199531 H 0.0 **** 0.06
31795 H 52.09384617122491 38.2971367017675 111.0251532887131 H 0.0 **** 0.06
31796 C 6.267940421389852 44.41810196266228 160.61532794531038 C 0.0 **** -0.24
31797 H 6.588029373961319 45.45734491130972 160.53917483747068 H 0.0 **** 0.06
31798 H 6.123452299959212 44.007601239774004 159.6166515948957 H 0.0 **** 0.06
31799 H 5.330024940218067 44.366826452027624 161.16922010624364 H 0.0 **** 0.06
31800 H 7.0305302377435055 43.840664507077776 161.13925247879797 H 0.0 **** 0.06
31801 C 126.36841034142306 154.99894466252573 100.24479393158747 C 0.0 **** -0.24
31802 H 127.3453558928196 154.84434817050243 99.78793133406198 H 0.0 **** 0.06
31803 H 125.65211518121906 155.29461955302781 99.47883066615235 H 0.0 **** 0.06
31804 H 126.44004427948458 155.78291998395053 100.99930597709589 H 0.0 **** 0.06
31805 H 126.03747404921374 154.0721069227077 100.71510780444153 H 0.0 **** 0.06
31806 C 32.82227802644391 128.2115086643821 174.0009957502752 C 0.0 **** -0.24
31807 H 33.39400304795615 128.18976815521427 174.92938521926618 H 0.0 **** 0.06
31808 H 31.756617330406627 128.239543582365 174.23173691989228 H 0.0 **** 0.06
31809 H 33.044815534479966 127.3195444525323 173.4158504443442 H 0.0 **** 0.06
31810 H 33.09415051414737 129.09845609191638 173.42904580373283 H 0.0 **** 0.06
31811 C 152.3985000507489 159.9337053891285 152.17721055129448 C 0.0 **** -0.24
31812 H 151.86882266048752 159.6270259612864 153.0793672639192 H 0.0 **** 0.06
31813 H 153.0147081678894 159.10843666938183 151.81998199957366 H 0.0 **** 0.06
31814 H 153.03246131866177 160.79065408529763 152.40082886131307 H 0.0 **** 0.06
31815 H 151.6759941637058 160.20748519286167 151.40798821114282 H 0.0 **** 0.06
31816 C 176.39709333677132 85.0800608125402 188.02410610122152 C 0.0 **** -0.24
31817 H 177.01475579926426 84.70031311989639 188.83745036687515 H 0.0 **** 0.06
31818 H 175.8971685102701 85.99474307601078 188.3432434803141 H 0.0 **** 0.06
31819 H 175.65127259226225 84.33262547868212 187.75559733633196 H 0.0 **** 0.06
31820 H 177.02574715631053 85.29276613654379 187.1593379473949 H 0.0 **** 0.06
31821 C 204.62664580424982 58.24223364904583 200.00251535879954 C 0.0 **** -0.24
31822 H 203.90875625744576 57.4380863768327 200.16432049308455 H 0.0 **** 0.06
31823 H 205.0123539123627 58.58270371424106 200.9633142565937 H 0.0 **** 0.06
31824 H 204.13337896762675 59.07111509225297 199.4941134213801 H 0.0 **** 0.06
31825 H 205.44973635788045 57.87637189778758 199.38821879673665 H 0.0 **** 0.06
31826 C 118.32575274394382 129.18807906861207 215.21804869510444 C 0.0 **** -0.24
31827 H 118.54043224528185 129.4531111259024 216.25359534633105 H 0.0 **** 0.06
31828 H 117.60177024446072 129.8916874764705 214.80610367541084 H 0.0 **** 0.06
31829 H 117.91584355816504 128.17933954066825 215.17894442399066 H 0.0 **** 0.06
31830 H 119.24644707271712 129.23007185272786 214.63504036181558 H 0.0 **** 0.06
31831 C 69.08619983978974 13.39757719969188 161.86330697138175 C 0.0 **** -0.24
31832 H 68.40313753715304 12.693694305904614 162.3388234273183 H 0.0 **** 0.06
31833 H 69.94173741084063 13.570903233402618 162.51681114378533 H 0.0 **** 0.06
31834 H 68.56882921103954 14.340957716725597 161.6844494998466 H 0.0 **** 0.06
31835 H 69.43010328289029 12.985915616265771 160.915058439083 H 0.0 **** 0.06
31836 C 81.56731310792287 19.47891026846014 74.79761763643143 C 0.0 **** -0.24
31837 H 81.15265945800479 19.49555466093578 73.7903314655374 H 0.0 **** 0.06
31838 H 82.34217939235674 20.241418832673375 74.88405887578887 H 0.0 **** 0.06
31839 H 81.9992598513353 18.497643491904142 74.99588682745872 H 0.0 **** 0.06
31840 H 80.77580299132165 19.68030623918075 75.51994204194318 H 0.0 **** 0.06
31841 C 110.44595119525904 134.14527232758763 9.551103120085827 C 0.0 **** -0.24
31842 H 109.3702863507251 134.31365867676863 9.497583785293386 H 0.0 **** 0.06
31843 H 110.74585109790785 133.46456833884065 8.753552942053972 H 0.0 **** 0.06
31844 H 110.69807511722063 133.70709391103628 10.516560179019194 H 0.0 **** 0.06
31845 H 110.96861077517407 135.09468778667224 9.434748549000972 H 0.0 **** 0.06
31846 C 28.161442894026138 160.19074854000084 3.5353141131892656 C 0.0 **** -0.24
31847 H 27.685869734387964 159.47554497612003 4.206297842768656 H 0.0 **** 0.06
31848 H 28.325805549077018 159.72399696686225 2.5642538582913303 H 0.0 **** 0.06
31849 H 29.118871105043894 160.50166974882856 3.955539517331097 H 0.0 **** 0.06
31850 H 27.51710521868128 161.06140237902932 3.416688755628776 H 0.0 **** 0.06
31851 C 106.70771511689502 24.210885539647563 119.13425289473007 C 0.0 **** -0.24
31852 H 105.68953626167847 24.26711661226642 119.51822686271088 H 0.0 **** 0.06
31853 H 107.0984841848581 25.219243102973223 118.99243356594225 H 0.0 **** 0.06
31854 H 106.70852910606472 23.684037583464146 118.17990248245304 H 0.0 **** 0.06
31855 H 107.33532994606871 23.675186226844815 119.84555732148867 H 0.0 **** 0.06
31856 C 4.481238533097773 61.93924040089479 216.68718165450366 C 0.0 **** -0.24
31857 H 4.3565171465707735 61.57763021345079 215.66582040187993 H 0.0 **** 0.06
31858 H 4.587808118466398 61.090516322867074 217.36193455779906 H 0.0 **** 0.06
31859 H 3.6089437273695424 62.52578668887628 216.97373591244673 H 0.0 **** 0.06
31860 H 5.373872032542735 62.56364988649108 216.7446220450646 H 0.0 **** 0.06
31861 C 168.05948540133343 44.702465391763724 98.51896251714992 C 0.0 **** -0.24
31862 H 168.03580963783827 44.06887787976689 99.40535038502527 H 0.0 **** 0.06
31863 H 169.0880706244281 44.8054212632135 98.1736660370198 H 0.0 **** 0.06
31864 H 167.65787735831304 45.68601193674999 98.76348719094683 H 0.0 **** 0.06
31865 H 167.4559236278299 44.24932424424895 97.73164908140357 H 0.0 **** 0.06
31866 C 91.6039496519632 179.72682112464906 125.8531070008105 C 0.0 **** -0.24
31867 H 91.79138369585087 179.31455355982206 126.84459026915033 H 0.0 **** 0.06
31868 H 90.52919008111337 179.7949416084225 125.68599747397849 H 0.0 **** 0.06
31869 H 92.04848740053342 179.07604004487462 125.1003790907148 H 0.0 **** 0.06
31870 H 92.0468660046156 180.71983259867366 125.78260566277999 H 0.0 **** 0.06
31871 C 62.40477882665061 173.90211488608753 141.6664463088503 C 0.0 **** -0.24
31872 H 63.18249164428505 173.46544910637894 141.03912906638953 H 0.0 **** 0.06
31873 H 62.10299690057752 174.86488861910115 141.25281777794027 H 0.0 **** 0.06
31874 H 62.7897611099238 174.04438366546137 142.6758294665981 H 0.0 **** 0.06
31875 H 61.54403336685698 173.23291408346114 141.69593700142184 H 0.0 **** 0.06
31876 C 178.68452769572167 41.72765434588797 0.4321009886003253 C 0.0 **** -0.24
31877 H 178.91299561027478 40.662005317904516 0.44068551261679545 H 0.0 **** 0.06
31878 H 179.187746212146 42.213116420088966 1.2692126073627037 H 0.0 **** 0.06
31879 H 177.60821253751607 41.86927013756588 0.5219717776494122 H 0.0 **** 0.06
31880 H 179.03189851117548 42.16511001064475 -0.5039525337834334 H 0.0 **** 0.06
31881 C 3.6834651592074152 60.8578828434421 69.36352771681715 C 0.0 **** -0.24
31882 H 3.9635865292716375 61.83212529828407 68.9611997196618 H 0.0 **** 0.06
31883 H 4.560614538919175 60.21116131646514 69.38953487925329 H 0.0 **** 0.06
31884 H 2.9181002572432746 60.40971147782764 68.7303380757752 H 0.0 **** 0.06
31885 H 3.2930702260839766 60.9822743265388 70.37388790114136 H 0.0 **** 0.06
31886 C 14.384848104900627 15.116181101386246 75.52492968947632 C 0.0 **** -0.24
31887 H 13.334252973627173 14.975206554075726 75.7789103664673 H 0.0 **** 0.06
31888 H 14.934398439852743 14.197243870637465 75.73001001240146 H 0.0 **** 0.06
31889 H 14.796342336976366 15.927436123880511 76.12424087513392 H 0.0 **** 0.06
31890 H 14.472576532479422 15.36405484891958 74.46759036455808 H 0.0 **** 0.06
31891 C 154.71306237702623 80.31358540232985 48.36517078294713 C 0.0 **** -0.24
31892 H 154.12457815594013 79.97620285734347 47.51116053723575 H 0.0 **** 0.06
31893 H 154.56681761594024 79.62879707880641 49.20042197641391 H 0.0 **** 0.06
31894 H 154.3915866127008 81.31438933737685 48.654437030804985 H 0.0 **** 0.06
31895 H 155.7680262850434 80.3352264422942 48.09282367694573 H 0.0 **** 0.06
31896 C 113.42023223001989 204.52636889487638 15.606219691788112 C 0.0 **** -0.24
31897 H 113.7638049989619 205.46678483521453 15.176252559795245 H 0.0 **** 0.06
31898 H 114.18625957228325 204.13086172525908 16.27390700039163 H 0.0 **** 0.06
31899 H 113.22882051930613 203.8100682464513 14.807964059188308 H 0.0 **** 0.06
31900 H 112.5013967900541 204.6977977290825 16.16801213148159 H 0.0 **** 0.06
31901 C 98.92028453780758 121.16998212734258 67.21064976939704 C 0.0 **** -0.24
31902 H 99.8347363590156 121.66909122145408 66.89215001584671 H 0.0 **** 0.06
31903 H 99.0317255391244 120.83003155168636 68.24023834980525 H 0.0 **** 0.06
31904 H 98.72967086901942 120.31310379575002 66.56452974199706 H 0.0 **** 0.06
31905 H 98.08400822269265 121.86671234307961 67.14551848896033 H 0.0 **** 0.06
31906 C 177.1332584951124 90.38054296636358 161.1845684703531 C 0.0 **** -0.24
31907 H 176.77288657404725 91.18231903665128 160.54092157220333 H 0.0 **** 0.06
31908 H 176.72317235754164 89.42944979900767 160.84363695469585 H 0.0 **** 0.06
31909 H 176.81334840128864 90.56685892793973 162.21042131238016 H 0.0 **** 0.06
31910 H 178.22128902924536 90.34346680913717 161.14402182512742 H 0.0 **** 0.06
31911 C 107.45664326889364 216.66519249121558 143.08172714121667 C 0.0 **** -0.24
31912 H 107.98901861605903 215.99921630870585 143.7609998074347 H 0.0 **** 0.06
31913 H 108.09805926997045 217.5081089300499 142.82358854454992 H 0.0 **** 0.06
31914 H 106.55183912192531 217.0304629408741 143.56600708688012 H 0.0 **** 0.06
31915 H 107.18935161681704 216.1207133950591 142.17532334244947 H 0.0 **** 0.06
31916 C 137.77363447769028 31.147197521646092 157.22937415119696 C 0.0 **** -0.24
31917 H 137.37483294496514 30.137668606027205 157.33758169785887 H 0.0 **** 0.06
31918 H 138.23990643291734 31.454768644533658 158.1657526093308 H 0.0 **** 0.06
31919 H 136.96319216213584 31.832406619710355 156.98408686149327 H 0.0 **** 0.06
31920 H 138.51599834845837 31.161045341489853 156.43156386500766 H 0.0 **** 0.06
31921 C 172.83788083211363 0.591459810329809 79.44530439227407 C 0.0 **** -0.24
31922 H 172.22308648612312 1.0571828091853774 78.67412856134155 H 0.0 **** 0.06
31923 H 172.75993946005386 -0.49296382746356926 79.36448569957372 H 0.0 **** 0.06
31924 H 172.48984310990966 0.9094921575095611 80.42839966625581 H 0.0 **** 0.06
31925 H 173.8766562174808 0.8930087615185016 79.31214636990234 H 0.0 **** 0.06
31926 C 191.88455209055707 123.67382668192441 43.82884377527128 C 0.0 **** -0.24
31927 H 191.73392275617886 124.71782278884241 44.10522048242446 H 0.0 **** 0.06
31928 H 191.16098013484097 123.0512790966677 44.35534759242519 H 0.0 **** 0.06
31929 H 192.89430071354752 123.3684072996992 44.10398894432325 H 0.0 **** 0.06
31930 H 191.75008378150696 123.55902917701566 42.75333183139681 H 0.0 **** 0.06
31931 C 148.8639425050457 173.83517259805183 24.599740429726126 C 0.0 **** -0.24
31932 H 149.35792599965146 173.6067263784564 23.654655359298147 H 0.0 **** 0.06
31933 H 147.7928358038494 173.65500801968886 24.501295935977623 H 0.0 **** 0.06
31934 H 149.03565054013671 174.88015569351734 24.85521605373782 H 0.0 **** 0.06
31935 H 149.26963473917527 173.19660299153153 25.384778527274904 H 0.0 **** 0.06
31936 C 161.54996655131396 64.69315128491603 178.52788089933338 C 0.0 **** -0.24
31937 H 160.59796585762285 64.85614054224776 178.02262817178823 H 0.0 **** 0.06
31938 H 162.2404680098274 65.49696151951983 178.26830043745008 H 0.0 **** 0.06
31939 H 161.96982777587266 63.73798925133096 178.21228118389956 H 0.0 **** 0.06
31940 H 161.3927858240814 64.68327464320188 179.60576344521178 H 0.0 **** 0.06
31941 C 183.07277998149124 143.36594581624956 92.32591988268922 C 0.0 **** -0.24
31942 H 182.82503280349968 142.32753787651495 92.10431790934808 H 0.0 **** 0.06
31943 H 182.85645055975797 143.98374825423002 91.45406274173445 H 0.0 **** 0.06
31944 H 184.132079152591 143.44146704323487 92.57226913453337 H 0.0 **** 0.06
31945 H 182.47752005798205 143.70756323558703 93.17162270728818 H 0.0 **** 0.06
31946 C 205.85040218981663 26.296952791612597 122.36022062410478 C 0.0 **** -0.24
31947 H 205.62197409774456 26.711924373324365 123.34175530230402 H 0.0 **** 0.06
31948 H 204.95677857286043 25.829217079971357 121.94685120841598 H 0.0 **** 0.06
31949 H 206.6396265551583 25.551727948695913 122.45618916150386 H 0.0 **** 0.06
31950 H 206.18314969006508 27.09552736927651 121.69689348953557 H 0.0 **** 0.06
31951 C 151.39600733994075 211.00093536520504 134.68664380599017 C 0.0 **** -0.24
31952 H 150.44815196715473 210.9135187266313 135.2178054216638 H 0.0 **** 0.06
31953 H 152.20013922858476 210.60982780946617 135.31005612896428 H 0.0 **** 0.06
31954 H 151.58895354565215 212.0499019047066 134.45937498687482 H 0.0 **** 0.06
31955 H 151.3451964572667 210.43133976324447 133.75846642617205 H 0.0 **** 0.06
31956 C 22.217302610873446 135.5398146123656 18.930687576667466 C 0.0 **** -0.24
31957 H 22.65461007884653 136.1223522974925 19.742191229076184 H 0.0 **** 0.06
31958 H 21.9912643958737 134.53406560151518 19.28541817193924 H 0.0 **** 0.06
31959 H 22.923529747215426 135.48413731439854 18.102107217181995 H 0.0 **** 0.06
31960 H 21.298911938343977 136.020979159182 18.593176982407968 H 0.0 **** 0.06
31961 C 34.67829471004217 25.789487703369957 32.82561940468881 C 0.0 **** -0.24
31962 H 34.09323325713106 26.5933395690887 32.378938971727706 H 0.0 **** 0.06
31963 H 34.34951082907577 25.62870792696208 33.85238333145678 H 0.0 **** 0.06
31964 H 35.733916708702964 26.061874367310168 32.81915056356175 H 0.0 **** 0.06
31965 H 34.536552771995986 24.87447894245787 32.2511123855497 H 0.0 **** 0.06
31966 C 97.04481524178482 19.101239578305538 13.688351316529065 C 0.0 **** -0.24
31967 H 97.09396620981039 20.002548167141484 14.300288540413646 H 0.0 **** 0.06
31968 H 97.7865792341318 19.161174470364102 12.892130794656936 H 0.0 **** 0.06
31969 H 96.04921609882018 19.012942049893752 13.252759717998657 H 0.0 **** 0.06
31970 H 97.24762453391588 18.229772475878505 14.310042236398147 H 0.0 **** 0.06
31971 C 98.77961683266001 206.2592881136051 61.01973872785425 C 0.0 **** -0.24
31972 H 98.07695651450031 205.5184761315502 61.40264895103036 H 0.0 **** 0.06
31973 H 98.30723257101145 207.24154997276037 61.01879847027652 H 0.0 **** 0.06
31974 H 99.06951774589153 205.99323661425927 60.00391582327444 H 0.0 **** 0.06
31975 H 99.6644056269608 206.28289406454206 61.656399309415065 H 0.0 **** 0.06
31976 C 194.94100027505732 113.58961839681216 54.56673209162972 C 0.0 **** -0.24
31977 H 194.0808758990216 112.92097680606555 54.609436049120404 H 0.0 **** 0.06
31978 H 195.37030436529304 113.56600899988048 53.56518492416143 H 0.0 **** 0.06
31979 H 195.68856500663364 113.26514383660175 55.29050026336404 H 0.0 **** 0.06
31980 H 194.6226344623122 114.60530302987964 54.80294192070471 H 0.0 **** 0.06
31981 C 19.282513867233206 135.47890440428034 54.113516606855924 C 0.0 **** -0.24
31982 H 20.19517185379607 135.83124672152167 54.59334721713812 H 0.0 **** 0.06
31983 H 18.417234760378534 135.90435235091718 54.62227711653453 H 0.0 **** 0.06
31984 H 19.239067475020533 134.3910422681094 54.16971738016581 H 0.0 **** 0.06
31985 H 19.278581379737716 135.78897627657307 53.06872471358527 H 0.0 **** 0.06
31986 C 167.2876800423824 201.22476964204452 83.30354452954951 C 0.0 **** -0.24
31987 H 167.46511268619366 201.38268525087548 84.36712407330744 H 0.0 **** 0.06
31988 H 167.66859383680298 202.07919658424646 82.7419179097569 H 0.0 **** 0.06
31989 H 166.2178302106048 201.12057815806097 83.12583242990699 H 0.0 **** 0.06
31990 H 167.8007102759745 200.31940213812226 82.98026324794493 H 0.0 **** 0.06
31991 C 81.03945757186985 181.09438944207648 21.38281375201734 C 0.0 **** -0.24
31992 H 81.5184307717124 180.18604780278997 21.749435206023065 H 0.0 **** 0.06
31993 H 80.69722664728782 180.936866666654 20.359197254659733 H 0.0 **** 0.06
31994 H 81.75555320000667 181.9159660318145 21.4037206211907 H 0.0 **** 0.06
31995 H 80.18730704449708 181.33724873190002 22.01820417811814 H 0.0 **** 0.06
31996 C 186.05120092530396 157.03008494764669 26.110008329689492 C 0.0 **** -0.24
31997 H 186.2297919211335 156.6523005187156 27.1161466393948 H 0.0 **** 0.06
31998 H 186.7436569513771 156.55416455749406 25.415218734591065 H 0.0 **** 0.06
31999 H 186.2064648109175 158.109199217891 26.09495288481358 H 0.0 **** 0.06
32000 H 185.02702985379943 156.80676654450406 25.813494214833582 H 0.0 **** 0.06
32001 C 158.3656087717158 216.93549396834385 116.69514606333144 C 0.0 **** -0.24
32002 H 157.5490902732824 216.2141353318508 116.69192450259283 H 0.0 **** 0.06
32003 H 159.15307176539199 216.59003634017816 117.36483792859832 H 0.0 **** 0.06
32004 H 157.99467176713375 217.90205187528863 117.03775474181401 H 0.0 **** 0.06
32005 H 158.7650077575641 217.03737694089457 115.68597538874656 H 0.0 **** 0.06
32006 C 106.34413233310765 142.11792741790202 51.498012836225485 C 0.0 **** -0.24
32007 H 106.26060129562934 141.84602192576932 50.44652432973915 H 0.0 **** 0.06
32008 H 105.78199853936137 143.03375033276018 51.681667754991224 H 0.0 **** 0.06
32009 H 107.39222543173442 142.27768816163513 51.750210159684926 H 0.0 **** 0.06
32010 H 105.93977835943842 141.31371998308697 52.113541405662644 H 0.0 **** 0.06
32011 C 95.65338772676061 36.19615272263525 141.7695298399347 C 0.0 **** -0.24
32012 H 94.70831458583304 36.55881300996842 142.17134369943932 H 0.0 **** 0.06
32013 H 95.50244980844433 35.21763415403268 141.31286004164042 H 0.0 **** 0.06
32014 H 96.38268062930929 36.11215506044405 142.57627913180323 H 0.0 **** 0.06
32015 H 96.0203105902775 36.894671201008634 141.01871784392205 H 0.0 **** 0.06
32016 C 155.30013265448912 10.83233958677988 98.72009987862167 C 0.0 **** -0.24
32017 H 154.72314219859157 11.740653003652824 98.89721539981382 H 0.0 **** 0.06
32018 H 156.0269389762774 10.701053440353917 99.52173237231945 H 0.0 **** 0.06
32019 H 155.82086941790624 10.913522137288282 97.76643550440771 H 0.0 **** 0.06
32020 H 154.62738942043228 9.974315201169901 98.69460764363437 H 0.0 **** 0.06
32021 C 6.582227630783336 177.1880868250425 1.8924158839539658 C 0.0 **** -0.24
32022 H 7.4814700830644085 176.85031513935576 1.3775611161458627 H 0.0 **** 0.06
32023 H 6.862477498030941 177.7359560387845 2.7922144598568366 H 0.0 **** 0.06
32024 H 5.975254068081398 176.32504888464769 2.166532189878602 H 0.0 **** 0.06
32025 H 6.008976965819784 177.840346690793 1.2333901758700136 H 0.0 **** 0.06
32026 C 190.50472298704926 120.73215494144826 157.82715198253425 C 0.0 **** -0.24
32027 H 190.38757986705673 121.61664099867325 158.45344108799367 H 0.0 **** 0.06
32028 H 189.5400439049217 120.23477824385039 157.71904623557862 H 0.0 **** 0.06
32029 H 191.21624963226645 120.04984436789233 158.2917456153018 H 0.0 **** 0.06
32030 H 190.8729444421288 121.02919552316935 156.84552171716348 H 0.0 **** 0.06
32031 C 115.26600696615257 145.73386645430963 175.9169113605961 C 0.0 **** -0.24
32032 H 114.66984147812046 145.16416428354842 176.62901125984018 H 0.0 **** 0.06
32033 H 114.96209112968866 145.4782901837766 174.90162515586468 H 0.0 **** 0.06
32034 H 116.3209574221071 145.4935126371168 176.05212870222215 H 0.0 **** 0.06
32035 H 115.11281998661296 146.79944547477265 176.0844709572857 H 0.0 **** 0.06
32036 C 94.44955592858865 155.31443507984073 54.80938412798649 C 0.0 **** -0.24
32037 H 93.86600595553584 154.97999776545015 53.953469298551056 H 0.0 **** 0.06
32038 H 94.56348601690085 154.49186461415655 55.516218563702765 H 0.0 **** 0.06
32039 H 93.93645049770556 156.1436243313957 55.29698349913579 H 0.0 **** 0.06
32040 H 95.4326439854495 155.64410873473355 54.47319475942355 H 0.0 **** 0.06
32041 C 122.94020666675881 114.03409638088061 53.66721002924115 C 0.0 **** -0.24
32042 H 122.98412995266536 114.80101541722877 52.893290079054594 H 0.0 **** 0.06
32043 H 123.49964265634885 113.15678469089721 53.33990476324868 H 0.0 **** 0.06
32044 H 121.90120491524617 113.75679677777407 53.84470770281939 H 0.0 **** 0.06
32045 H 123.37606858396303 114.42121482778583 54.587528350343746 H 0.0 **** 0.06
32046 C 145.7076554411958 72.46482170341535 86.61284663955009 C 0.0 **** -0.24
32047 H 145.26925350803566 72.81938708538605 87.54570690359078 H 0.0 **** 0.06
32048 H 146.48594445351875 73.15662222699426 86.2913324429788 H 0.0 **** 0.06
32049 H 144.93360717036325 72.40589425507405 85.84761270886519 H 0.0 **** 0.06
32050 H 146.14014105488246 71.47584131540525 86.76763727046448 H 0.0 **** 0.06
32051 C 44.184747849841244 5.003860187245749 208.41753197621068 C 0.0 **** -0.24
32052 H 44.583455412182445 5.120143896849143 209.4242392220259 H 0.0 **** 0.06
32053 H 44.922693220196834 4.505356352856921 207.78883753697824 H 0.0 **** 0.06
32054 H 43.95479152048432 5.984972736789132 208.00121551018952 H 0.0 **** 0.06
32055 H 43.27481744415178 4.403485957235283 208.45467502682595 H 0.0 **** 0.06
32056 C 201.64594835548667 71.62792778274273 207.38515386712734 C 0.0 **** -0.24
32057 H 200.63109884204198 71.83817135858611 207.0497135359396 H 0.0 **** 0.06
32058 H 201.84613461436803 70.55989421121846 207.29182160111077 H 0.0 **** 0.06
32059 H 201.75341255330812 71.92745915605717 208.42780507635618 H 0.0 **** 0.06
32060 H 202.35511528706408 72.18569204761606 206.7732458425512 H 0.0 **** 0.06
32061 C 49.10581300660954 174.9312993549305 0.8906227392078847 C 0.0 **** -0.24
32062 H 49.813607335064205 174.81495278157655 0.07080582377707856 H 0.0 **** 0.06
32063 H 48.37657060882418 175.69953830410486 0.6343815029612756 H 0.0 **** 0.06
32064 H 49.64084332633689 175.22427917307755 1.793964601465973 H 0.0 **** 0.06
32065 H 48.59185027359496 173.98527724333712 1.0640690672073276 H 0.0 **** 0.06
32066 C 184.4558650038824 211.10985606904813 198.38723378102213 C 0.0 **** -0.24
32067 H 184.42193467333738 210.0945520449367 197.9925584686641 H 0.0 **** 0.06
32068 H 183.4453495213721 211.43667373392935 198.63478545108933 H 0.0 **** 0.06
32069 H 184.88029009441502 211.7768864770131 197.6365867791601 H 0.0 **** 0.06
32070 H 185.07510118964996 211.13129821056967 199.28382784314746 H 0.0 **** 0.06
32071 C 210.3581414669148 114.75369133585606 173.11929003113426 C 0.0 **** -0.24
32072 H 209.70454236739056 115.3957545671026 173.70918506345765 H 0.0 **** 0.06
32073 H 209.94305206326737 114.63390207388862 172.11871796920417 H 0.0 **** 0.06
32074 H 210.43731045767694 113.77786364062005 173.59904176523986 H 0.0 **** 0.06
32075 H 211.34770195326055 115.20621897166221 173.051187691812 H 0.0 **** 0.06
32076 C 83.35186599764461 116.46600598494575 116.4605974500101 C 0.0 **** -0.24
32077 H 82.28046840686847 116.54934697313519 116.6438885421265 H 0.0 **** 0.06
32078 H 83.72802975579651 115.55172043367963 116.91880688040074 H 0.0 **** 0.06
32079 H 83.86212273231752 117.32647812028233 116.89235072462829 H 0.0 **** 0.06
32080 H 83.53531920268341 116.43609727738976 115.38610568920468 H 0.0 **** 0.06
32081 C 101.93178138511011 108.8275264016416 9.504898237094778 C 0.0 **** -0.24
32082 H 102.22523717873723 108.06117439937857 8.787794036292752 H 0.0 **** 0.06
32083 H 100.9067920409327 108.6472467622633 9.829886303174689 H 0.0 **** 0.06
32084 H 101.9973770507895 109.80886089885108 9.034766389644517 H 0.0 **** 0.06
32085 H 102.59795975655105 108.79217866240585 10.366420748238156 H 0.0 **** 0.06
32086 C 212.06888437871476 7.4376578063453 123.9164262815256 C 0.0 **** -0.24
32087 H 212.66300813276987 6.796779400298647 123.26470626799734 H 0.0 **** 0.06
32088 H 211.08376970115413 7.589222549116428 123.47591824896888 H 0.0 **** 0.06
32089 H 212.56889140241253 8.399683359971917 124.03151302262013 H 0.0 **** 0.06
32090 H 211.96231135705824 6.964235605678695 124.89233188343063 H 0.0 **** 0.06
32091 C 151.80974152811848 194.48553266956546 54.17580057224433 C 0.0 **** -0.24
32092 H 152.2317338223421 194.99948352228026 55.039434268317734 H 0.0 **** 0.06
32093 H 152.61525974403924 194.06022530312967 53.57743682070401 H 0.0 **** 0.06
32094 H 151.24365525239278 195.19459502223776 53.57167885724283 H 0.0 **** 0.06
32095 H 151.1487571185845 193.68809235303792 54.51551028726948 H 0.0 **** 0.06
32096 C 144.07637401645707 69.37335059560206 192.16839481934906 C 0.0 **** -0.24
32097 H 143.38573231300728 69.9025975120205 191.51232175504276 H 0.0 **** 0.06
32098 H 144.24050358558412 68.36638996364574 191.785122198534 H 0.0 **** 0.06
32099 H 143.65284157638996 69.31733966656263 193.1714023926677 H 0.0 **** 0.06
32100 H 145.02506954312793 69.9081598360501 192.20467150724892 H 0.0 **** 0.06
32101 C 100.24519681291783 106.8761252921726 161.66172243723165 C 0.0 **** -0.24
32102 H 100.86087793477292 107.60676463305306 161.13580222473524 H 0.0 **** 0.06
32103 H 99.37927279057006 106.62328460252648 161.04886574034407 H 0.0 **** 0.06
32104 H 99.90946230056493 107.29894402321825 162.6084160455901 H 0.0 **** 0.06
32105 H 100.83156056486912 105.97761349768147 161.853159729818 H 0.0 **** 0.06
32106 C 203.72753645171622 73.15224452404226 62.28536968847662 C 0.0 **** -0.24
32107 H 204.03818985505382 72.79502122010865 61.30372407794563 H 0.0 **** 0.06
32108 H 203.64698330232505 74.23878545503669 62.26787341524245 H 0.0 **** 0.06
32109 H 204.46525725310875 72.8535178982284 63.03017339454428 H 0.0 **** 0.06
32110 H 202.75928763480817 72.72034035850851 62.53940347580982 H 0.0 **** 0.06
32111 C 81.80838076705061 92.5991142444936 9.534463164759728 C 0.0 **** -0.24
32112 H 82.31610385613527 91.73158242807837 9.956135965243476 H 0.0 **** 0.06
32113 H 80.77267576436708 92.34220508890799 9.314642894298203 H 0.0 **** 0.06
32114 H 82.31067672438326 92.9024541327136 8.616647390004857 H 0.0 **** 0.06
32115 H 81.8361693869171 93.41927321041403 10.252347703915774 H 0.0 **** 0.06
32116 C 200.3607497516138 124.76257333274981 117.9777514959066 C 0.0 **** -0.24
32117 H 200.33409201749672 124.88292674472348 116.89425780606666 H 0.0 **** 0.06
32118 H 201.0824967125672 125.46108034973292 118.40255901514757 H 0.0 **** 0.06
32119 H 200.6549581792827 123.7421847466722 118.22236069929698 H 0.0 **** 0.06
32120 H 199.3721438322746 124.9645465630951 118.38952118897072 H 0.0 **** 0.06
32121 C 45.60668785436407 98.80949719062768 86.31248256733232 C 0.0 **** -0.24
32122 H 46.3031021850619 98.59061276870246 87.12292741677203 H 0.0 **** 0.06
32123 H 44.75374135205152 98.13354885089932 86.37550833864242 H 0.0 **** 0.06
32124 H 46.109047821988426 98.67259631637982 85.35489875912583 H 0.0 **** 0.06
32125 H 45.26232294465996 99.83975096181966 86.39788806504276 H 0.0 **** 0.06
32126 C 153.0313510538934 7.524707295694213 32.37632540740486 C 0.0 **** -0.24
32127 H 152.98294811566444 6.5440666428625605 31.903303001744362 H 0.0 **** 0.06
32128 H 153.54094938029914 7.439921380410112 33.335829978118454 H 0.0 **** 0.06
32129 H 152.0205767098284 7.902322511288247 32.53338630308764 H 0.0 **** 0.06
32130 H 153.58000382034265 8.212142031824897 31.732763633949375 H 0.0 **** 0.06
32131 C 27.07109128928795 82.92696827009087 4.504399024698522 C 0.0 **** -0.24
32132 H 26.61190747363304 83.86072667590844 4.827921184864401 H 0.0 **** 0.06
32133 H 26.549251882448743 82.55071890059293 3.624623383754063 H 0.0 **** 0.06
32134 H 27.005921479284495 82.19274898128464 5.308488633314276 H 0.0 **** 0.06
32135 H 28.118587024829793 83.10400566909351 4.258611321043247 H 0.0 **** 0.06
32136 C 63.40930762937073 200.1810937378869 160.38122323553756 C 0.0 **** -0.24
32137 H 63.94971588058449 199.5185882357711 159.70580077351383 H 0.0 **** 0.06
32138 H 62.63760779364864 199.61529971934823 160.90477615238188 H 0.0 **** 0.06
32139 H 62.9458275309599 200.9838032024266 159.80777589810543 H 0.0 **** 0.06
32140 H 64.10346292604181 200.6062412913023 161.10588875319513 H 0.0 **** 0.06
32141 C 201.1359654167731 115.07241897061458 177.7418372429595 C 0.0 **** -0.24
32142 H 201.78202886934486 115.46319260435455 176.95709901779816 H 0.0 **** 0.06
32143 H 200.68385312005972 115.90178505413873 178.2872036647591 H 0.0 **** 0.06
32144 H 201.72528485302877 114.46416589062038 178.42859261639506 H 0.0 **** 0.06
32145 H 200.35187333676606 114.46005350297149 177.29647752165943 H 0.0 **** 0.06
32146 C 144.0203199597052 131.1632507688808 138.30317184507192 C 0.0 **** -0.24
32147 H 144.20736981856254 131.14451824440505 139.37636826805988 H 0.0 **** 0.06
32148 H 143.3011180079106 130.38405256055563 138.046343342687 H 0.0 **** 0.06
32149 H 144.9535270375614 130.9868241838721 137.76859973491992 H 0.0 **** 0.06
32150 H 143.6178365736618 132.13669428089736 138.02102293400162 H 0.0 **** 0.06
32151 C 185.66559017517727 11.401049025283214 208.3663094815867 C 0.0 **** -0.24
32152 H 185.23902931887204 12.259878104202329 207.84783036905395 H 0.0 **** 0.06
32153 H 186.25194858104032 10.807526685063294 207.66526085352967 H 0.0 **** 0.06
32154 H 184.86174976475365 10.789407229891992 208.77738254655833 H 0.0 **** 0.06
32155 H 186.3070415068952 11.749161505563904 209.17582478367035 H 0.0 **** 0.06
32156 C 98.70402418577477 14.97858500395381 83.5043146466524 C 0.0 **** -0.24
32157 H 97.73806872287223 15.018454758431659 84.00769281674263 H 0.0 **** 0.06
32158 H 98.63013502689496 15.476580591668423 82.53725780608136 H 0.0 **** 0.06
32159 H 98.99454045043002 13.938383246362193 83.35679264326001 H 0.0 **** 0.06
32160 H 99.45297000468669 15.481753906056454 84.11659266183676 H 0.0 **** 0.06
32161 C 120.01120875546228 61.03426575449748 195.3258971631915 C 0.0 **** -0.24
32162 H 120.483648505694 61.05170070425339 196.30854300907404 H 0.0 **** 0.06
32163 H 120.5848972591168 61.65322174745383 194.63609275945348 H 0.0 **** 0.06
32164 H 118.99603510753049 61.42270116646 195.40434793541476 H 0.0 **** 0.06
32165 H 119.98042147456881 60.00997494430287 194.9559031122694 H 0.0 **** 0.06
32166 C 131.34485125110433 29.322250181666718 74.42466532667578 C 0.0 **** -0.24
32167 H 131.88163067003762 28.37281580593576 74.4221388618239 H 0.0 **** 0.06
32168 H 130.7066962868446 29.38013667642913 73.54312546640784 H 0.0 **** 0.06
32169 H 132.060564157619 30.143628022084954 74.41053739362684 H 0.0 **** 0.06
32170 H 130.7313744013274 29.38955144784744 75.32268693992404 H 0.0 **** 0.06
32171 C 109.12117915647671 10.52934440673161 162.0978886659637 C 0.0 **** -0.24
32172 H 108.52973937570685 10.174839782007297 162.9413787808447 H 0.0 **** 0.06
32173 H 109.65794862796646 11.434318907847256 162.3850120677177 H 0.0 **** 0.06
32174 H 108.46268639024932 10.748905169405973 161.25834446794119 H 0.0 **** 0.06
32175 H 109.83642455223163 9.759590249674787 161.80758588817235 H 0.0 **** 0.06
32176 C 111.50988968904359 101.06263764176511 202.25408603597413 C 0.0 **** -0.24
32177 H 110.90813221233806 100.28299534105226 202.71965121416696 H 0.0 **** 0.06
32178 H 112.00134825487687 100.66143709730595 201.36737934901555 H 0.0 **** 0.06
32179 H 112.26363385661081 101.41147097515501 202.9608435564083 H 0.0 **** 0.06
32180 H 110.86644443234856 101.89464715354721 201.96847002430573 H 0.0 **** 0.06
32181 C 139.83779755374832 189.41111694010172 1.0670464530736652 C 0.0 **** -0.24
32182 H 139.87649344899103 188.73576381540286 0.2129551793612876 H 0.0 **** 0.06
32183 H 139.39613066583735 190.35956204820508 0.7612485227870565 H 0.0 **** 0.06
32184 H 140.8476479994751 189.58392986044257 1.4395956638723035 H 0.0 **** 0.06
32185 H 139.23205196639026 188.9652614727651 1.855694863432781 H 0.0 **** 0.06
32186 C 28.084099157448037 193.8939872791591 139.6461225148044 C 0.0 **** -0.24
32187 H 27.21416121047143 194.28208465409273 139.11736499581372 H 0.0 **** 0.06
32188 H 27.770536164754972 193.47079555943546 140.6006989462952 H 0.0 **** 0.06
32189 H 28.79305720719843 194.70370682121438 139.82298095547657 H 0.0 **** 0.06
32190 H 28.560531271987628 193.12049643724788 139.043824836505 H 0.0 **** 0.06
32191 C 21.369969882044373 65.55160668699352 130.05719758451158 C 0.0 **** -0.24
32192 H 21.22820280789901 64.62978710176804 129.4938754120139 H 0.0 **** 0.06
32193 H 20.46133022339926 66.1523448755259 130.00703034478 H 0.0 **** 0.06
32194 H 22.2010282884831 66.11324644594845 129.6301567796841 H 0.0 **** 0.06
32195 H 21.590587011775355 65.31165000983452 131.09756003113097 H 0.0 **** 0.06
32196 C 194.18367891440843 123.63172580859197 197.13805558137278 C 0.0 **** -0.24
32197 H 194.8281237177051 124.416687723498 197.53359928486697 H 0.0 **** 0.06
32198 H 193.51340890449472 123.28195403091001 197.92491389063127 H 0.0 **** 0.06
32199 H 194.79659747265177 122.80191736083185 196.7866030070264 H 0.0 **** 0.06
32200 H 193.59669590542794 124.02712447304219 196.30942540447896 H 0.0 **** 0.06
32201 C 134.7821982897749 175.07780340927587 173.13564196359795 C 0.0 **** -0.24
32202 H 134.8685025410154 175.90428298905766 173.84112067980823 H 0.0 **** 0.06
32203 H 135.77808703981242 174.74177322876756 172.84597757037136 H 0.0 **** 0.06
32204 H 134.23794349695913 175.41068450109466 172.25123026388445 H 0.0 **** 0.06
32205 H 134.24261292531236 174.2546940597888 173.6057353544469 H 0.0 **** 0.06
32206 C 89.69671008343822 202.71660355145053 91.2601103796912 C 0.0 **** -0.24
32207 H 89.81026999989318 201.63818748426118 91.15027384055831 H 0.0 **** 0.06
32208 H 88.8084189045154 202.93003400272082 91.85523672948356 H 0.0 **** 0.06
32209 H 89.59314882227456 203.17335218204298 90.27513072788157 H 0.0 **** 0.06
32210 H 90.57500260706966 203.12484053677713 91.75980022084126 H 0.0 **** 0.06
32211 C 61.49700010364543 61.567441704612804 88.45765835201985 C 0.0 **** -0.24
32212 H 61.21676206691973 61.67039945949523 89.5058155322456 H 0.0 **** 0.06
32213 H 62.49121125383357 61.1250552083485 88.38994923642599 H 0.0 **** 0.06
32214 H 61.503520172760574 62.55018946294325 87.98615175638065 H 0.0 **** 0.06
32215 H 60.776833415211115 60.92592003049549 87.95034877212089 H 0.0 **** 0.06
32216 C 64.28534194784906 85.50124116891669 188.7351870410672 C 0.0 **** -0.24
32217 H 65.07676666039492 85.41891214205157 187.9914256801297 H 0.0 **** 0.06
32218 H 64.72579438572905 85.52728427138584 189.73240144156972 H 0.0 **** 0.06
32219 H 63.61977842677503 84.64163956395333 188.65393174323958 H 0.0 **** 0.06
32220 H 63.71891679129391 86.41621297832245 188.56337535061934 H 0.0 **** 0.06
32221 C 101.70108946626523 100.81423558802861 117.3033934562838 C 0.0 **** -0.24
32222 H 101.8518169825873 100.10860242194421 118.12035623803911 H 0.0 **** 0.06
32223 H 101.34644381707743 101.76450593463186 117.70449057051206 H 0.0 **** 0.06
32224 H 100.96139753218249 100.4140096754379 116.60991944784092 H 0.0 **** 0.06
32225 H 102.64348070908268 100.97005639965037 116.77948627392101 H 0.0 **** 0.06
32226 C 60.85908572151597 15.439532368452205 25.370541214912052 C 0.0 **** -0.24
32227 H 61.837941690212304 15.819338885839556 25.0772407815155 H 0.0 **** 0.06
32228 H 60.96366440445148 14.424014767946971 25.754072777174997 H 0.0 **** 0.06
32229 H 60.19784279904279 15.43466124495012 24.50389410658319 H 0.0 **** 0.06
32230 H 60.43860706627126 16.079659891611982 26.14559384355377 H 0.0 **** 0.06
32231 C 36.88505215841869 71.75829576927008 25.656765761262676 C 0.0 **** -0.24
32232 H 37.89711385882842 72.04451458687011 25.370968567892078 H 0.0 **** 0.06
32233 H 36.53303947446159 72.413645742909 26.453280428085435 H 0.0 **** 0.06
32234 H 36.8852021931433 70.72648801497412 26.007226688141373 H 0.0 **** 0.06
32235 H 36.22486309392019 71.84920366267541 24.793230979352188 H 0.0 **** 0.06
32236 C 61.61738170182625 199.29067103684417 186.63617932748474 C 0.0 **** -0.24
32237 H 60.69150665900651 198.98729874994902 186.14574296445636 H 0.0 **** 0.06
32238 H 61.4323682115441 199.4351066332087 187.70088281365014 H 0.0 **** 0.06
32239 H 61.971917229066634 200.222904802977 186.19845124710457 H 0.0 **** 0.06
32240 H 62.37135177877764 198.51458166939148 186.50036484895213 H 0.0 **** 0.06
32241 C 51.58121709764235 200.49724828617175 33.77048211434777 C 0.0 **** -0.24
32242 H 52.63438735548013 200.4247794301806 33.50136914884821 H 0.0 **** 0.06
32243 H 51.2716789002812 199.58196248125034 34.274983983555344 H 0.0 **** 0.06
32244 H 50.98451883456276 200.63430894458745 32.867932548996464 H 0.0 **** 0.06
32245 H 51.43418657295395 201.3471270760334 34.43581900517607 H 0.0 **** 0.06
32246 C 0.9605516866642461 179.97798293214902 174.49527097594546 C 0.0 **** -0.24
32247 H 1.7149838296427617 180.22261463583703 173.74853033625493 H 0.0 **** 0.06
32248 H 1.021545971482709 180.68927961161583 175.31987384618225 H 0.0 **** 0.06
32249 H 1.1349512311086016 178.97018919130187 174.87110431415033 H 0.0 **** 0.06
32250 H -0.029171027604064648 180.03019585172694 174.04250737043168 H 0.0 **** 0.06
32251 C 38.712938153095635 23.24689268949254 193.90195212893536 C 0.0 **** -0.24
32252 H 38.50189514269323 22.54237404806929 194.70690894816727 H 0.0 **** 0.06
32253 H 37.82171026245004 23.374605264658868 193.28858726206997 H 0.0 **** 0.06
32254 H 39.52661611840544 22.862032538625158 193.28761756119343 H 0.0 **** 0.06
32255 H 39.00243289374383 24.207200625848373 194.32848184206378 H 0.0 **** 0.06
32256 C 58.95424817768752 37.42345324225255 41.82979641191426 C 0.0 **** -0.24
32257 H 58.11752044751641 38.00287030746364 42.220330291406256 H 0.0 **** 0.06
32258 H 59.88540718027792 37.80142765436334 42.251667706108265 H 0.0 **** 0.06
32259 H 58.983261668779576 37.51370960960001 40.7444452599632 H 0.0 **** 0.06
32260 H 58.829249268662124 36.37619447859551 42.104302304417786 H 0.0 **** 0.06
32261 C 154.79524735632344 186.84505403374868 156.8668674452253 C 0.0 **** -0.24
32262 H 153.89448117217938 187.01714942038214 157.45515698172278 H 0.0 **** 0.06
32263 H 154.5199371098962 186.44162240893684 155.89176573229378 H 0.0 **** 0.06
32264 H 155.43787066859363 186.13449909279495 157.38639712227894 H 0.0 **** 0.06
32265 H 155.32706554110405 187.787162819301 156.7336210867075 H 0.0 **** 0.06
32266 C 168.22544635365557 41.813759851229804 191.29876866138818 C 0.0 **** -0.24
32267 H 168.66988601551952 40.90408652066924 191.70376862616612 H 0.0 **** 0.06
32268 H 167.9165114181386 42.4627083966771 192.1186858158161 H 0.0 **** 0.06
32269 H 167.35804184176538 41.55463932689088 190.69226054838524 H 0.0 **** 0.06
32270 H 168.95904870991416 42.33203458791212 190.68115630807486 H 0.0 **** 0.06
32271 C 97.68879846848604 25.667707418610206 158.10053787964137 C 0.0 **** -0.24
32272 H 97.34329760203953 25.81328232430765 159.12407206870282 H 0.0 **** 0.06
32273 H 98.70608347578586 26.049215013935196 158.00306308255796 H 0.0 **** 0.06
32274 H 97.0315623317753 26.20381156481382 157.4163207124967 H 0.0 **** 0.06
32275 H 97.67455564718726 24.604708681658423 157.86090283352888 H 0.0 **** 0.06
32276 C 171.71969074245538 132.95657623288247 90.06294541683947 C 0.0 **** -0.24
32277 H 171.18640088524256 132.02778221290941 90.26692762893968 H 0.0 **** 0.06
32278 H 172.78761632267498 132.7536691727929 89.98745499537183 H 0.0 **** 0.06
32279 H 171.54109248831918 133.66291597780042 90.8740249286826 H 0.0 **** 0.06
32280 H 171.36209312962922 133.38237403641074 89.12491539011198 H 0.0 **** 0.06
32281 C 101.96771364386119 96.57443350051754 12.638152842087848 C 0.0 **** -0.24
32282 H 102.87849126210627 96.602711970008 12.039802945353628 H 0.0 **** 0.06
32283 H 101.88504730955104 97.49505423562614 13.216355994937558 H 0.0 **** 0.06
32284 H 102.00464178306397 95.72155907752695 13.31643499580585 H 0.0 **** 0.06
32285 H 101.10353122067424 96.47839183852811 11.981142287815999 H 0.0 **** 0.06
32286 C 13.182399578256877 134.53122910784458 25.12736611891168 C 0.0 **** -0.24
32287 H 13.359916277618936 133.48140553910753 24.898107748493956 H 0.0 **** 0.06
32288 H 13.655503070703105 135.1537087719032 24.367039010354063 H 0.0 **** 0.06
32289 H 13.605720650355693 134.76683873497558 26.103939984719176 H 0.0 **** 0.06
32290 H 12.110319910988323 134.72531593023996 25.140389700093294 H 0.0 **** 0.06
32291 C 23.550743812604537 78.27161339373781 122.24448840503054 C 0.0 **** -0.24
32292 H 23.566238586159244 79.21447189070797 122.7904287765805 H 0.0 **** 0.06
32293 H 23.395948070509064 78.46959862520318 121.18326586276679 H 0.0 **** 0.06
32294 H 22.74074702813266 77.64720046592002 122.61994522267675 H 0.0 **** 0.06
32295 H 24.50187608500282 77.75633638685936 122.38317209250614 H 0.0 **** 0.06
32296 C 175.3510616013939 141.4765332516568 172.01869834806826 C 0.0 **** -0.24
32297 H 175.96088143209855 140.7542294551768 171.47499056323244 H 0.0 **** 0.06
32298 H 174.59007438058472 141.8824451454854 171.35261793914054 H 0.0 **** 0.06
32299 H 175.9850693906728 142.2860178444369 172.38166249040205 H 0.0 **** 0.06
32300 H 174.87093599863925 140.98331517030164 172.86337429316325 H 0.0 **** 0.06
32301 C 17.781235556101706 15.03807279492672 61.44269585147043 C 0.0 **** -0.24
32302 H 17.2684519873104 15.786186575651996 60.838854891617075 H 0.0 **** 0.06
32303 H 18.858853405707194 15.188502044595694 61.370418850658666 H 0.0 **** 0.06
32304 H 17.52773523967663 14.042194448104112 61.08011891574466 H 0.0 **** 0.06
32305 H 17.46941130641828 15.135865228188294 62.482987843781416 H 0.0 **** 0.06
32306 C 103.15660482872444 56.78719237085818 96.77126954435413 C 0.0 **** -0.24
32307 H 104.09246848204661 56.58790532059794 97.29286231883431 H 0.0 **** 0.06
32308 H 102.60456707993349 57.563805440176466 97.30021339161259 H 0.0 **** 0.06
32309 H 102.56006063957851 55.875207882277095 96.73682435732302 H 0.0 **** 0.06
32310 H 103.37071932404997 57.119494213139305 95.75588311977772 H 0.0 **** 0.06
32311 C 67.44842999536138 67.36494073222435 177.0847707147633 C 0.0 **** -0.24
32312 H 66.81733589299998 67.26116293379192 177.966924626871 H 0.0 **** 0.06
32313 H 67.34826046620137 66.47745081650984 176.45978923143517 H 0.0 **** 0.06
32314 H 68.48757518791182 67.47774294983898 177.39131930524334 H 0.0 **** 0.06
32315 H 67.13938004017712 68.2445506834039 176.5192261877982 H 0.0 **** 0.06
32316 C 107.1079778560237 194.8246387790326 0.6154282619763194 C 0.0 **** -0.24
32317 H 107.20296815259684 193.86528903843632 1.1236005232804303 H 0.0 **** 0.06
32318 H 107.25732413630146 194.68445479371633 -0.4553496246951738 H 0.0 **** 0.06
32319 H 107.85871813575693 195.51482251560003 0.9997621944041271 H 0.0 **** 0.06
32320 H 106.1135378639047 195.2332180770349 0.793678613508007 H 0.0 **** 0.06
32321 C 133.3471077814038 35.743939123646896 62.11469805843828 C 0.0 **** -0.24
32322 H 133.21688592431616 36.632914605460314 62.73204885146281 H 0.0 **** 0.06
32323 H 132.419241855696 35.53270284587427 61.5826273818447 H 0.0 **** 0.06
32324 H 133.60364459550306 34.895309313119185 62.74902797944884 H 0.0 **** 0.06
32325 H 134.147990458275 35.91526412291017 61.395691929848496 H 0.0 **** 0.06
32326 C 65.59792683114392 111.18045268086138 8.928344005348578 C 0.0 **** -0.24
32327 H 65.45903907261385 110.11728755165592 9.12754052978002 H 0.0 **** 0.06
32328 H 64.65230706641404 111.70296437737898 9.071014658226858 H 0.0 **** 0.06
32329 H 65.93753816025747 111.31565756155612 7.901751139613324 H 0.0 **** 0.06
32330 H 66.34357613268804 111.58381294754429 9.613337981783516 H 0.0 **** 0.06
32331 C 52.74411583419595 110.46423619689614 204.70917642165546 C 0.0 **** -0.24
32332 H 51.881939959217334 109.8392538257732 204.9443485981659 H 0.0 **** 0.06
32333 H 53.00127739894444 110.34682858105054 203.65655231250477 H 0.0 **** 0.06
32334 H 53.59044571702975 110.16252019480783 205.3264318985075 H 0.0 **** 0.06
32335 H 52.501564123798346 111.5074354789125 204.91017903905546 H 0.0 **** 0.06
32336 C 214.6081353865456 176.80268483541317 98.53733686957376 C 0.0 **** -0.24
32337 H 214.8708600501404 175.83538416131745 98.10806852886832 H 0.0 **** 0.06
32338 H 213.52319349447217 176.88200278769904 98.61375616715516 H 0.0 **** 0.06
32339 H 214.98728616216317 177.59819379081347 97.89774302449548 H 0.0 **** 0.06
32340 H 215.0502641012182 176.89153934912378 99.52963179063026 H 0.0 **** 0.06
32341 C 194.57374721410878 178.23556419992383 144.19670424068835 C 0.0 **** -0.24
32342 H 194.99222574080613 177.63536818118712 145.00569721204943 H 0.0 **** 0.06
32343 H 194.48543875809452 179.27231852049925 144.52322415105687 H 0.0 **** 0.06
32344 H 193.58783771040564 177.85249171864052 143.9345248154023 H 0.0 **** 0.06
32345 H 195.228893339462 178.1815914751935 143.32870101893502 H 0.0 **** 0.06
32346 C 130.42578936859263 187.50514141880316 120.94081882134704 C 0.0 **** -0.24
32347 H 131.4565477883595 187.83653975015363 121.061124016515 H 0.0 **** 0.06
32348 H 130.13738161092488 186.89614023945882 121.79800531089761 H 0.0 **** 0.06
32349 H 130.33940450638977 186.91413895893666 120.02851793866081 H 0.0 **** 0.06
32350 H 129.77000507565538 188.37322651795807 120.87432553245323 H 0.0 **** 0.06
32351 C 61.18885197833475 71.76678046401331 27.728572138658194 C 0.0 **** -0.24
32352 H 60.605982910442776 71.89724179552196 26.817429664845548 H 0.0 **** 0.06
32353 H 60.99229152007763 72.59707976346895 28.406516228104294 H 0.0 **** 0.06
32354 H 62.25010569531395 71.74259563148188 27.48072786982641 H 0.0 **** 0.06
32355 H 60.90653817354814 70.82936740418997 28.209371299584575 H 0.0 **** 0.06
32356 C 5.158459515448271 212.0565094971831 33.74469404182334 C 0.0 **** -0.24
32357 H 4.265066359472627 212.40581261826347 34.26395810169657 H 0.0 **** 0.06
32358 H 5.275483781617567 212.60816704514423 32.81208619172338 H 0.0 **** 0.06
32359 H 5.059295971722179 210.99238707723038 33.528277269680444 H 0.0 **** 0.06
32360 H 6.032457194705955 212.21923964877226 34.37631426895689 H 0.0 **** 0.06
32361 C 82.37070128638538 36.67512625211465 90.51019061346017 C 0.0 **** -0.24
32362 H 81.65848990810599 37.411333011598714 90.88356268782616 H 0.0 **** 0.06
32363 H 83.29361547232952 36.738492119477215 91.08636359365966 H 0.0 **** 0.06
32364 H 82.58255264038576 36.87502359428372 89.46068112675476 H 0.0 **** 0.06
32365 H 81.94676476218291 35.67582399679364 90.61159066871488 H 0.0 **** 0.06
32366 C 6.658478370137914 130.8255763877508 153.38076191750167 C 0.0 **** -0.24
32367 H 6.354740887760499 131.07823888542356 152.3650496870797 H 0.0 **** 0.06
32368 H 6.4768487546099465 131.6768654902175 154.03679444927474 H 0.0 **** 0.06
32369 H 7.719938166651772 130.57738463824302 153.3913966586407 H 0.0 **** 0.06
32370 H 6.081401206393522 129.9688052275199 153.72989695935183 H 0.0 **** 0.06
32371 C 142.36194826148284 66.24150341682878 200.84334855857688 C 0.0 **** -0.24
32372 H 141.84402147733897 66.83178087924108 200.0875116066043 H 0.0 **** 0.06
32373 H 141.69718828748364 65.46023551874862 201.21171221440366 H 0.0 **** 0.06
32374 H 142.65676653789689 66.88761181999934 201.66962286833578 H 0.0 **** 0.06
32375 H 143.2492591045674 65.7858555869534 200.4029956635719 H 0.0 **** 0.06
32376 C 52.42149672276406 208.83185495539928 186.77259324991567 C 0.0 **** -0.24
32377 H 51.797490168100296 209.69381244948815 186.53595377934965 H 0.0 **** 0.06
32378 H 51.81462443153572 208.06383390023404 187.25084610859787 H 0.0 **** 0.06
32379 H 53.21991770366367 209.13820718251742 187.448741453838 H 0.0 **** 0.06
32380 H 52.85532841669334 208.43504460433758 185.85471267789603 H 0.0 **** 0.06
32381 C 206.54404659072097 72.20124332558333 178.74031211539392 C 0.0 **** -0.24
32382 H 206.42632097914912 72.19249051503982 179.82432051975832 H 0.0 **** 0.06
32383 H 206.2715864699921 73.1841190752117 178.35418014097303 H 0.0 **** 0.06
32384 H 205.89444913656274 71.44475370938255 178.29885117442993 H 0.0 **** 0.06
32385 H 207.5807672687659 71.98399864933396 178.4860109190368 H 0.0 **** 0.06
32386 C 214.35646797320692 161.84723563090404 8.627257087107381 C 0.0 **** -0.24
32387 H 215.33067823782787 161.81700591190446 9.115658221821988 H 0.0 **** 0.06
32388 H 213.71678377292238 162.56766974150315 9.138178776319677 H 0.0 **** 0.06
32389 H 213.89819481494803 160.85890394275083 8.670964452722941 H 0.0 **** 0.06
32390 H 214.4805180275882 162.14492344265557 7.586617539688419 H 0.0 **** 0.06
32391 C 22.93284949051821 207.96812315599243 45.199730044337116 C 0.0 **** -0.24
32392 H 23.57397333640641 208.70128018666588 44.710797420153426 H 0.0 **** 0.06
32393 H 22.915834592154482 207.0502614213624 44.610986902027264 H 0.0 **** 0.06
32394 H 21.921472543665786 208.36587763840691 45.28083597770278 H 0.0 **** 0.06
32395 H 23.320253090208396 207.75410672749013 46.19651717261577 H 0.0 **** 0.06
32396 C 106.66303100725035 127.74710562064432 36.024461795603315 C 0.0 **** -0.24
32397 H 107.38124513927984 127.49057097310681 36.803178413370574 H 0.0 **** 0.06
32398 H 105.68122426103663 127.90169678365324 36.472687445281736 H 0.0 **** 0.06
32399 H 106.607558102613 126.93457790175587 35.29953724003036 H 0.0 **** 0.06
32400 H 106.98135983946277 128.660903433062 35.52250616715014 H 0.0 **** 0.06
32401 C 86.36551607037876 31.728288450653736 125.82602278861242 C 0.0 **** -0.24
32402 H 85.72465298082255 32.490881506942046 126.26876026211966 H 0.0 **** 0.06
32403 H 87.36177181488341 32.14118499327628 125.66468745723506 H 0.0 **** 0.06
32404 H 85.9457756495703 31.408792501007596 124.87233916792849 H 0.0 **** 0.06
32405 H 86.43077322445902 30.872684026193326 126.49845101206512 H 0.0 **** 0.06
32406 C 60.4691055815489 137.99451534770105 37.65395848070432 C 0.0 **** -0.24
32407 H 60.75259039831816 138.626185122834 36.81161603002798 H 0.0 **** 0.06
32408 H 59.94473839243331 138.5940343592659 38.397676930267096 H 0.0 **** 0.06
32409 H 61.36403552356673 137.56128490477988 38.10006823220809 H 0.0 **** 0.06
32410 H 59.81543197694933 137.19516799748254 37.304037376783214 H 0.0 **** 0.06
32411 C 10.005976515584337 41.374407418907026 99.0047892444346 C 0.0 **** -0.24
32412 H 10.771325306807228 41.782651279381696 98.3441415864891 H 0.0 **** 0.06
32413 H 9.039120969312023 41.81038034056513 98.75395245331966 H 0.0 **** 0.06
32414 H 10.254894734418997 41.61132488435578 100.03882162215778 H 0.0 **** 0.06
32415 H 9.95973602899008 40.292559973877815 98.88047489380544 H 0.0 **** 0.06
32416 C 60.764572933665775 57.13299232684909 156.28738497408705 C 0.0 **** -0.24
32417 H 60.449767055650895 56.272499373955526 156.87681881675036 H 0.0 **** 0.06
32418 H 61.490159345388335 57.71606026519743 156.85492112490857 H 0.0 **** 0.06
32419 H 59.89845862526779 57.75442514799397 156.05911671970466 H 0.0 **** 0.06
32420 H 61.21954092698432 56.789615307478726 155.35799888974407 H 0.0 **** 0.06
32421 C 148.96967546843678 154.22840857917566 80.21646961698951 C 0.0 **** -0.24
32422 H 148.66949723532463 155.2652465412375 80.36769528898992 H 0.0 **** 0.06
32423 H 149.3334988371825 154.10033000476363 79.1970783433016 H 0.0 **** 0.06
32424 H 148.11277691510463 153.57504403116133 80.38175355371709 H 0.0 **** 0.06
32425 H 149.7620377571829 153.9742664615145 80.92014917147293 H 0.0 **** 0.06
32426 C 118.25490217133847 180.2562019454598 16.603122706494048 C 0.0 **** -0.24
32427 H 118.72621948394914 180.71989843551538 15.73544781057683 H 0.0 **** 0.06
32428 H 117.17109661265658 180.3125318307401 16.499650011387473 H 0.0 **** 0.06
32429 H 118.56288333574201 180.78078082239296 17.507656145807033 H 0.0 **** 0.06
32430 H 118.56087142516151 179.21181786717435 16.666941629386656 H 0.0 **** 0.06
32431 C 148.8956666637663 57.31712282712573 56.29028353108353 C 0.0 **** -0.24
32432 H 149.8273638220532 56.75343883908528 56.23821712697094 H 0.0 **** 0.06
32433 H 148.065084027738 56.63011104013225 56.4510735158579 H 0.0 **** 0.06
32434 H 148.74545463503978 57.856864772326446 55.355317694957506 H 0.0 **** 0.06
32435 H 148.94689379308556 58.02756300940689 57.11607750377138 H 0.0 **** 0.06
32436 C 64.49116966511917 103.18657875556595 20.528861597455148 C 0.0 **** -0.24
32437 H 64.36544924212642 102.22515485094333 21.027225515088674 H 0.0 **** 0.06
32438 H 64.60975053018267 103.97097000667596 21.27709357925147 H 0.0 **** 0.06
32439 H 63.61349279695099 103.3961834601211 19.917176772754374 H 0.0 **** 0.06
32440 H 65.37688425478402 103.153040956872 19.894461078871615 H 0.0 **** 0.06
32441 C 200.67668883772185 159.20743796805857 156.3916010544873 C 0.0 **** -0.24
32442 H 199.64908823581823 158.86458336341215 156.2758088282314 H 0.0 **** 0.06
32443 H 201.1939268575383 159.1319670339484 155.43502690243298 H 0.0 **** 0.06
32444 H 201.18470269406697 158.58571293533612 157.12961803411645 H 0.0 **** 0.06
32445 H 200.67813674530336 160.24453654356745 156.72663923174156 H 0.0 **** 0.06
32446 C 166.28800942477807 86.99766418439435 92.0827998146629 C 0.0 **** -0.24
32447 H 165.30792556421446 87.09718032497722 92.54930522788175 H 0.0 **** 0.06
32448 H 166.42369824297657 87.79508995863478 91.3510848134269 H 0.0 **** 0.06
32449 H 166.35609966726946 86.0305781710357 91.58457647260678 H 0.0 **** 0.06
32450 H 167.06246342577757 87.06904830774101 92.84642501210072 H 0.0 **** 0.06
32451 C 69.71723887272253 102.61700107484056 30.50870847172996 C 0.0 **** -0.24
32452 H 68.95613830460724 101.86687302697148 30.291101040109055 H 0.0 **** 0.06
32453 H 69.40709434509142 103.5773694708261 30.095908197783928 H 0.0 **** 0.06
32454 H 70.66312017892375 102.31569966525167 30.057958917004555 H 0.0 **** 0.06
32455 H 69.84057979462943 102.70740751789204 31.587524866641814 H 0.0 **** 0.06
32456 C 166.23979396574902 98.37707298415167 188.33637434069823 C 0.0 **** -0.24
32457 H 166.13782224633638 97.42620851526648 188.86018984337008 H 0.0 **** 0.06
32458 H 167.0080206884869 98.28774434003934 187.5686522405245 H 0.0 **** 0.06
32459 H 166.52329179612877 99.15365582576716 189.04657304697108 H 0.0 **** 0.06
32460 H 165.29013786708794 98.63943494509668 187.87127906701633 H 0.0 **** 0.06
32461 C 202.71067108303075 204.29884601222108 119.80704031326682 C 0.0 **** -0.24
32462 H 203.33615770987527 203.66607259199253 120.43534707447783 H 0.0 **** 0.06
32463 H 201.7208061222276 204.39061023595485 120.25498320795138 H 0.0 **** 0.06
32464 H 202.62153464223888 203.85297121263238 118.81672345282443 H 0.0 **** 0.06
32465 H 203.1634597180012 205.2869316718032 119.72127710482239 H 0.0 **** 0.06
32466 C 36.259316679053484 193.39258094068512 60.076298506803184 C 0.0 **** -0.24
32467 H 36.655200823082794 192.39075405928736 59.91219863645949 H 0.0 **** 0.06
32468 H 36.61876813162078 193.77265078889423 61.03359142629344 H 0.0 **** 0.06
32469 H 35.17061049941981 193.35531594596662 60.086111182665746 H 0.0 **** 0.06
32470 H 36.59437627290626 194.0508809933977 59.27491330515895 H 0.0 **** 0.06
32471 C 25.28834622773263 21.290520758271583 126.15385450986015 C 0.0 **** -0.24
32472 H 25.903678448992963 20.427047314269203 125.89982495127289 H 0.0 **** 0.06
32473 H 25.77655100821478 22.19933924398748 125.80308510416252 H 0.0 **** 0.06
32474 H 25.1621401249063 21.339374839458657 127.23537354956899 H 0.0 **** 0.06
32475 H 24.312587399707454 21.193122909765236 125.67827328688337 H 0.0 **** 0.06
32476 C 214.41056572711446 175.57460468860756 71.83367429319401 C 0.0 **** -0.24
32477 H 215.19413516176715 175.54930925342654 72.59150556248073 H 0.0 **** 0.06
32478 H 214.2629464605301 174.5712833847432 71.43088515014028 H 0.0 **** 0.06
32479 H 214.7045245777366 176.249121473917 71.03021090423147 H 0.0 **** 0.06
32480 H 213.4818716711588 175.92710012215457 72.28306996100395 H 0.0 **** 0.06
32481 C 214.92413655605412 22.285969641096628 102.40939258687185 C 0.0 **** -0.24
32482 H 215.91532547101718 22.013427290446486 102.04759937163082 H 0.0 **** 0.06
32483 H 214.71860049804036 23.326612376375436 102.15619941330529 H 0.0 **** 0.06
32484 H 214.88582793491503 22.16024376343725 103.49129303722823 H 0.0 **** 0.06
32485 H 214.1776769389108 21.643307662735978 101.94211133741193 H 0.0 **** 0.06
32486 C 196.65675842815452 6.8060767868380765 55.16683879394964 C 0.0 **** -0.24
32487 H 196.69197903308796 7.168266741316529 54.13978861594222 H 0.0 **** 0.06
32488 H 195.64596602286827 6.472595311845666 55.40021819239655 H 0.0 **** 0.06
32489 H 196.94208094476005 7.609809921150287 55.84560992429323 H 0.0 **** 0.06
32490 H 197.35012623006074 5.97191761500909 55.280587323630186 H 0.0 **** 0.06
32491 C 36.08726950019681 150.46077503358106 26.57178115863701 C 0.0 **** -0.24
32492 H 36.25915279212904 151.18531083178272 25.776248547556236 H 0.0 **** 0.06
32493 H 35.1895329351257 150.73652914523274 27.12688916653383 H 0.0 **** 0.06
32494 H 36.94321864833047 150.45209866789463 27.246941081166483 H 0.0 **** 0.06
32495 H 35.95648298235719 149.46899809905528 26.138625828816146 H 0.0 **** 0.06
32496 C 67.77269749147825 189.05866136989349 100.56404028198337 C 0.0 **** -0.24
32497 H 68.67743252757123 189.3366433386858 100.0224697017568 H 0.0 **** 0.06
32498 H 67.05224498404783 189.87559433606364 100.50990275957925 H 0.0 **** 0.06
32499 H 68.02023582235228 188.86092854751053 101.60674859886025 H 0.0 **** 0.06
32500 H 67.3425260647569 188.16379457158897 100.11608150436619 H 0.0 **** 0.06
32501 C 154.9288274143948 205.08231119079136 133.7314729466895 C 0.0 **** -0.24
32502 H 155.4444038508064 205.0689712168118 132.7718568260894 H 0.0 **** 0.06
32503 H 155.4726607340724 205.72192769731222 134.42767206067197 H 0.0 **** 0.06
32504 H 154.8787847390044 204.06946238695997 134.13174057714485 H 0.0 **** 0.06
32505 H 153.91892442108673 205.46893018871535 133.5959302403549 H 0.0 **** 0.06
32506 C 165.5771032380643 136.84903192736294 141.26376014780573 C 0.0 **** -0.24
32507 H 164.93189620243507 136.06260844565145 140.87173574688154 H 0.0 **** 0.06
32508 H 165.31617590098472 137.7990399843884 140.7958586868022 H 0.0 **** 0.06
32509 H 166.61667743133313 136.60895569077246 141.043737396163 H 0.0 **** 0.06
32510 H 165.44161650006887 136.9250521511887 142.34294197556073 H 0.0 **** 0.06
32511 C 90.22361479451467 135.52470425561444 94.05790586407024 C 0.0 **** -0.24
32512 H 90.9300311545669 134.94704347472748 94.6543084884649 H 0.0 **** 0.06
32513 H 89.93969826332807 136.42481738428978 94.60322310837206 H 0.0 **** 0.06
32514 H 89.3361446884893 134.9224858093949 93.86196224941419 H 0.0 **** 0.06
32515 H 90.689594388312 135.8036814147709 93.11272868318402 H 0.0 **** 0.06
32516 C 76.62212082920827 208.12226203101852 116.39588117853198 C 0.0 **** -0.24
32517 H 77.56726840889654 207.7701116066994 116.809838033302 H 0.0 **** 0.06
32518 H 76.17558229593219 208.84643298091768 117.07683191119254 H 0.0 **** 0.06
32519 H 75.9452392837819 207.27807032229117 116.26573178992648 H 0.0 **** 0.06
32520 H 76.80336113066205 208.59461944661555 115.4300470449305 H 0.0 **** 0.06
32521 C 15.908998157580356 136.74864138138577 177.9472061568872 C 0.0 **** -0.24
32522 H 16.46177574863789 137.30935015642308 177.19411869579176 H 0.0 **** 0.06
32523 H 15.014596289930026 136.3180728900906 177.4970059694367 H 0.0 **** 0.06
32524 H 15.620856114978181 137.41760015854283 178.75823849770063 H 0.0 **** 0.06
32525 H 16.53898719704941 135.9506225929341 178.34140658463224 H 0.0 **** 0.06
32526 C 197.1521678057037 40.5878910430373 93.3292553493248 C 0.0 **** -0.24
32527 H 197.72110837400598 41.46810743632847 93.62732053359088 H 0.0 **** 0.06
32528 H 197.45030229212261 39.737217558830935 93.94215223226473 H 0.0 **** 0.06
32529 H 197.34949217919512 40.366966066988766 92.27993538127038 H 0.0 **** 0.06
32530 H 196.087993130994 40.77974372709491 93.46543883297358 H 0.0 **** 0.06
32531 C 101.39235748318366 24.459001923891364 86.11117826034723 C 0.0 **** -0.24
32532 H 101.32455862818223 24.74856563422928 85.06264342276603 H 0.0 **** 0.06
32533 H 101.61979123258548 23.394549613532703 86.17970072830781 H 0.0 **** 0.06
32534 H 100.44163521283535 24.66049372874734 86.60567332509856 H 0.0 **** 0.06
32535 H 102.1827572337556 25.032043798803798 86.59606214599842 H 0.0 **** 0.06
32536 C 65.40607485150994 126.73573966855348 34.7231042275605 C 0.0 **** -0.24
32537 H 65.03030066587758 125.7187395683885 34.60865466368895 H 0.0 **** 0.06
32538 H 65.24339696517703 127.28938008251986 33.79748694061567 H 0.0 **** 0.06
32539 H 66.47277751786801 126.70544356163278 34.945189130265504 H 0.0 **** 0.06
32540 H 64.87751317131996 127.22871282079099 35.538754367629735 H 0.0 **** 0.06
32541 C 1.286115881821516 144.50515962093294 139.3381617535403 C 0.0 **** -0.24
32542 H 1.670577254995024 145.1886613531213 140.0946516457737 H 0.0 **** 0.06
32543 H 0.27561578775287643 144.80304667476827 139.05920657388015 H 0.0 **** 0.06
32544 H 1.2697847875420578 143.49199826582526 139.73776589824348 H 0.0 **** 0.06
32545 H 1.9306365620178596 144.53825774283325 138.45845056080253 H 0.0 **** 0.06
32546 C 214.93784087163561 132.77522702549004 196.27857644950376 C 0.0 **** -0.24
32547 H 215.37240145620032 133.7623392036483 196.4370844526718 H 0.0 **** 0.06
32548 H 214.57734789006972 132.38053378161823 197.22843285329162 H 0.0 **** 0.06
32549 H 215.69420501582704 132.1059740261216 195.86946787194861 H 0.0 **** 0.06
32550 H 214.10621008365172 132.85480234675526 195.5778895358462 H 0.0 **** 0.06
32551 C 8.219283411194851 207.09995808780565 151.98765675881043 C 0.0 **** -0.24
32552 H 8.529291290349477 207.31106767488754 150.96378322717032 H 0.0 **** 0.06
32553 H 8.58007362519794 207.89042516593963 152.6464809938742 H 0.0 **** 0.06
32554 H 8.63702936780669 206.1440698056029 152.30378180601934 H 0.0 **** 0.06
32555 H 7.131459025369395 207.0544113493446 152.0353718537104 H 0.0 **** 0.06
32556 C 90.40576292585263 0.7676112316625847 178.0000213196523 C 0.0 **** -0.24
32557 H 89.4537824346998 0.5729889374962411 178.49440624206903 H 0.0 **** 0.06
32558 H 90.29513682991302 0.6145297225474309 176.9262797010859 H 0.0 **** 0.06
32559 H 91.16158016001668 0.08548105673805395 178.3888617288477 H 0.0 **** 0.06
32560 H 90.71137383513445 1.795971974700855 178.1917379954839 H 0.0 **** 0.06
32561 C 162.95234987856327 152.9054624044631 73.88401788466246 C 0.0 **** -0.24
32562 H 162.6618356799445 152.0898172538984 74.54538133091836 H 0.0 **** 0.06
32563 H 162.92086092360006 153.8466959391517 74.43284300787542 H 0.0 **** 0.06
32564 H 162.26403263109862 152.9525373982258 73.04063870860188 H 0.0 **** 0.06
32565 H 163.96488628091117 152.73274616604073 73.51750281886245 H 0.0 **** 0.06
32566 C 162.2639868318347 125.0793244700486 145.60349152395253 C 0.0 **** -0.24
32567 H 162.0252976476695 124.16240927659753 146.14185861859676 H 0.0 **** 0.06
32568 H 162.7747341046442 124.83032483119952 144.6728172762423 H 0.0 **** 0.06
32569 H 162.91203497078692 125.70354191893311 146.21804771263845 H 0.0 **** 0.06
32570 H 161.34406237315852 125.61893835368151 145.38045124029367 H 0.0 **** 0.06
32571 C 61.220903855321694 185.40339857315655 130.89048114966488 C 0.0 **** -0.24
32572 H 62.21701291552802 185.49882665440526 131.32251049614888 H 0.0 **** 0.06
32573 H 60.65327842196103 186.3149784451401 131.08005345303042 H 0.0 **** 0.06
32574 H 60.70832577640664 184.55411019299723 131.34406589940784 H 0.0 **** 0.06
32575 H 61.30488870559026 185.2434471428153 129.81521177222777 H 0.0 **** 0.06
32576 C 153.00723934779768 113.52682255588718 58.57597969258373 C 0.0 **** -0.24
32577 H 151.92863042462943 113.5535921185205 58.72870594047872 H 0.0 **** 0.06
32578 H 153.50777058273638 113.95699678180051 59.44394557277154 H 0.0 **** 0.06
32579 H 153.26259889887194 114.10321328675127 57.686497050604856 H 0.0 **** 0.06
32580 H 153.3302934430386 112.49485655786037 58.44465055998515 H 0.0 **** 0.06
32581 C 187.9474709204004 87.28163541260388 69.00219970486499 C 0.0 **** -0.24
32582 H 188.04492843640475 86.438146222984 68.3185907819706 H 0.0 **** 0.06
32583 H 187.37097459139414 88.07324928671754 68.52246059725508 H 0.0 **** 0.06
32584 H 188.93800855660965 87.65796695407478 69.25824443335668 H 0.0 **** 0.06
32585 H 187.43590760646762 86.95702602565076 69.90851690363407 H 0.0 **** 0.06
32586 C 128.16558629916148 96.36909831725642 174.9967194426433 C 0.0 **** -0.24
32587 H 128.9864555465188 97.06953092495483 175.15285076382386 H 0.0 **** 0.06
32588 H 127.32560740422925 96.89083616765733 174.53865591034315 H 0.0 **** 0.06
32589 H 127.8567175920682 95.95381249823784 175.95582785205625 H 0.0 **** 0.06
32590 H 128.49542930065275 95.5629192543279 174.34096639445158 H 0.0 **** 0.06
32591 C 7.470540815802053 189.96645637780085 99.19163771173204 C 0.0 **** -0.24
32592 H 6.966805567568173 189.01098519817387 99.34028418012606 H 0.0 **** 0.06
32593 H 6.955324665094096 190.53039091113055 98.41287694747838 H 0.0 **** 0.06
32594 H 8.50314241201103 189.78987499015238 98.8903569528923 H 0.0 **** 0.06
32595 H 7.454945105703487 190.53400572522344 100.12208848882146 H 0.0 **** 0.06
32596 C 125.85678648632124 65.59094813341193 212.90500102431048 C 0.0 **** -0.24
32597 H 126.21527870469642 64.5612097975856 212.87949710464687 H 0.0 **** 0.06
32598 H 124.88010547940759 65.64627946852067 212.42301055682785 H 0.0 **** 0.06
32599 H 126.56024184156745 66.23324894072823 212.37654161388838 H 0.0 **** 0.06
32600 H 125.77134461587833 65.91869891748615 213.94095529160143 H 0.0 **** 0.06
32601 C 201.04141107684276 53.639300269979415 129.06973907927573 C 0.0 **** -0.24
32602 H 200.98225213049855 53.53072975219982 127.98638742235131 H 0.0 **** 0.06
32603 H 202.02564674578807 53.32018819322016 129.4133519077768 H 0.0 **** 0.06
32604 H 200.2749506724207 53.02175316091045 129.53860170586495 H 0.0 **** 0.06
32605 H 200.88237393512816 54.68336286687233 129.33993645612088 H 0.0 **** 0.06
32606 C 182.89704087720014 68.91018925691293 150.55710223455355 C 0.0 **** -0.24
32607 H 182.94503561571764 67.93145974656636 151.03423343596165 H 0.0 **** 0.06
32608 H 182.26854058240312 69.57354726517201 151.15159502285832 H 0.0 **** 0.06
32609 H 182.47310571799477 68.80569477684037 149.55748228116425 H 0.0 **** 0.06
32610 H 183.9006917650455 69.32819402826442 150.48414313207002 H 0.0 **** 0.06
32611 C 38.81686172411706 184.05971855274294 207.84997977500478 C 0.0 **** -0.24
32612 H 39.33127368720962 184.9559726824624 207.50446712727464 H 0.0 **** 0.06
32613 H 39.416212464166094 183.57077496269264 208.61914752223694 H 0.0 **** 0.06
32614 H 38.67371641960041 183.37662886547886 207.01311059371866 H 0.0 **** 0.06
32615 H 37.847613797410446 184.33478793822374 208.264812766654 H 0.0 **** 0.06
32616 C 23.976606092400004 117.34069951409369 88.6604137977285 C 0.0 **** -0.24
32617 H 24.522173254952236 116.60071415399953 88.0740928192838 H 0.0 **** 0.06
32618 H 23.027402833278416 117.56301805782913 88.17117683793771 H 0.0 **** 0.06
32619 H 24.56891402872543 118.252275363886 88.73677417551943 H 0.0 **** 0.06
32620 H 23.786773701230004 116.94492010607449 89.65757298336325 H 0.0 **** 0.06
32621 C 116.24511856523871 143.5071585086461 92.20288559225168 C 0.0 **** -0.24
32622 H 116.38331332935961 142.4328817165108 92.08212255249174 H 0.0 **** 0.06
32623 H 115.19558476981008 143.7183493835471 92.40867035724676 H 0.0 **** 0.06
32624 H 116.54644834638755 144.01728278569226 91.28711064817873 H 0.0 **** 0.06
32625 H 116.85710940097103 143.8605085860002 93.03225225532947 H 0.0 **** 0.06
32626 C 47.08578575256831 112.72932860121902 89.01066462783683 C 0.0 **** -0.24
32627 H 47.503300636874485 112.90886582138633 88.01902715626005 H 0.0 **** 0.06
32628 H 47.18848159940728 113.62966722407613 89.61582332729728 H 0.0 **** 0.06
32629 H 47.62120666868003 111.9074468975649 89.48568151114358 H 0.0 **** 0.06
32630 H 46.03030716959165 112.47043632410346 88.91863794383625 H 0.0 **** 0.06
32631 C 72.6735391761474 192.99091451112264 147.4531327724452 C 0.0 **** -0.24
32632 H 73.19112485415455 192.22563692885169 146.87492483346347 H 0.0 **** 0.06
32633 H 72.30553728364738 193.7668373971096 146.78187394141872 H 0.0 **** 0.06
32634 H 73.36377606692055 193.43133154443237 148.17388587730142 H 0.0 **** 0.06
32635 H 71.83472066548369 192.5398638122796 147.98325908740384 H 0.0 **** 0.06
32636 C 163.29900270213318 179.95880177147203 216.93790924869896 C 0.0 **** -0.24
32637 H 162.8055229264969 179.37037299043322 216.16363317571037 H 0.0 **** 0.06
32638 H 163.36349325630263 179.37030305691914 217.8540262696897 H 0.0 **** 0.06
32639 H 162.72379199858565 180.86499966547666 217.12769639190202 H 0.0 **** 0.06
32640 H 164.3015637232081 180.22689183488737 216.60569208907137 H 0.0 **** 0.06
32641 C 184.39766259750877 192.89399740931498 54.257261042637154 C 0.0 **** -0.24
32642 H 184.51172926315394 192.06370288769028 54.95492067111677 H 0.0 **** 0.06
32643 H 183.33792908126102 193.0764726090073 54.079008938129604 H 0.0 **** 0.06
32644 H 184.88676718822438 192.6453799422733 53.31500937555002 H 0.0 **** 0.06
32645 H 184.85573808700607 193.78860748755255 54.67949414915334 H 0.0 **** 0.06
32646 C 13.263341086875428 42.59661798757959 204.00633097056476 C 0.0 **** -0.24
32647 H 13.27472989837824 42.288068603517374 205.05226296148436 H 0.0 **** 0.06
32648 H 12.243008317285685 42.55068320040469 203.62576275077913 H 0.0 **** 0.06
32649 H 13.899424819896382 41.93041230471742 203.42457106424507 H 0.0 **** 0.06
32650 H 13.636439045020822 43.61754649185579 203.92570815952655 H 0.0 **** 0.06
32651 C 100.02919429601961 47.93614568209976 13.340435769402532 C 0.0 **** -0.24
32652 H 99.58488547820001 48.77251256410126 12.800465162520396 H 0.0 **** 0.06
32653 H 99.71008592886939 46.99852028286655 12.883193349822179 H 0.0 **** 0.06
32654 H 99.70669372266262 47.96242654191916 14.381123920062933 H 0.0 **** 0.06
32655 H 101.11611791224165 48.012332838461376 13.294406136499049 H 0.0 **** 0.06
32656 C 148.34217915729954 114.82325586185924 17.200982837337875 C 0.0 **** -0.24
32657 H 147.3555891115721 114.37335626612828 17.30929517228506 H 0.0 **** 0.06
32658 H 148.24701567721485 115.9092974118421 17.188949120569845 H 0.0 **** 0.06
32659 H 148.79363922333175 114.48722637843103 16.266627359125195 H 0.0 **** 0.06
32660 H 148.97253600228368 114.52261014318164 18.038216106243496 H 0.0 **** 0.06
32661 C 116.03418219957655 168.87015185107686 68.53297563813875 C 0.0 **** -0.24
32662 H 115.48427502986755 167.9531762336494 68.74776385940416 H 0.0 **** 0.06
32663 H 115.92555611262208 169.12033622595936 67.47797361116882 H 0.0 **** 0.06
32664 H 117.08885127394524 168.7236825650542 68.76504894684396 H 0.0 **** 0.06
32665 H 115.63787386934808 169.6824622683718 69.14214936400774 H 0.0 **** 0.06
32666 C 209.55182760758714 131.39521908966088 179.05008675434658 C 0.0 **** -0.24
32667 H 209.77651761963781 131.1204243955779 178.0194940066855 H 0.0 **** 0.06
32668 H 208.48531489983486 131.26309661522646 179.23605303116935 H 0.0 **** 0.06
32669 H 209.8229747729536 132.4383695603546 179.21550278398075 H 0.0 **** 0.06
32670 H 210.12055011068998 130.75978843986087 179.72856131612008 H 0.0 **** 0.06
32671 C 183.63798187491653 95.52128320615088 137.7790829770488 C 0.0 **** -0.24
32672 H 184.53359575198527 94.95464852950312 137.52340726253374 H 0.0 **** 0.06
32673 H 182.76650950424028 94.86882723697664 137.71990306800353 H 0.0 **** 0.06
32674 H 183.52018538167653 96.34955930241318 137.08035639835543 H 0.0 **** 0.06
32675 H 183.73255218752985 95.91170187875252 138.7925911717009 H 0.0 **** 0.06
32676 C 135.48574097811905 19.90339529299939 37.607579893460866 C 0.0 **** -0.24
32677 H 134.96902382023245 20.00114446161058 38.56314550700722 H 0.0 **** 0.06
32678 H 134.8870842778441 19.291729942128086 36.93223420484918 H 0.0 **** 0.06
32679 H 136.45380227199593 19.42835152327183 37.76562064592582 H 0.0 **** 0.06
32680 H 135.6314926368873 20.890988616960783 37.17124172416209 H 0.0 **** 0.06
32681 C 86.90323040338264 13.682331519258469 202.28383949402647 C 0.0 **** -0.24
32682 H 85.89759265128235 13.277222248942223 202.17883806907278 H 0.0 **** 0.06
32683 H 87.49495619525594 13.41836354005818 201.40612560818298 H 0.0 **** 0.06
32684 H 87.3715140426623 13.266816372244648 203.1754659364033 H 0.0 **** 0.06
32685 H 86.84989213879409 14.767927067970618 202.37321785813825 H 0.0 **** 0.06
32686 C 204.4336905658064 133.51690817475026 122.01981089166974 C 0.0 **** -0.24
32687 H 204.46844579285417 134.54787886495393 122.372135527687 H 0.0 **** 0.06
32688 H 203.45087774755467 133.31264796127726 121.5935775204553 H 0.0 **** 0.06
32689 H 204.6154177519188 132.8414314996961 122.85613896050394 H 0.0 **** 0.06
32690 H 205.19873673813925 133.36694996447676 121.25870445465434 H 0.0 **** 0.06
32691 C 202.47348304814824 184.69099603237572 65.21608199227705 C 0.0 **** -0.24
32692 H 201.8060796114713 183.90786053189802 65.57685420646403 H 0.0 **** 0.06
32693 H 203.38131865687797 184.2375650085239 64.81594578944194 H 0.0 **** 0.06
32694 H 202.73091750476615 185.35606236435714 66.04011439637989 H 0.0 **** 0.06
32695 H 201.97467128611294 185.2593286210423 64.4316841249276 H 0.0 **** 0.06
32696 C 60.68791387391529 154.48446675033216 89.51490790571091 C 0.0 **** -0.24
32697 H 60.72352277282273 155.54945477626012 89.28219633881753 H 0.0 **** 0.06
32698 H 61.061946680847626 153.91469007865817 88.66478372296604 H 0.0 **** 0.06
32699 H 59.65851503549669 154.1928834381829 89.72526796440786 H 0.0 **** 0.06
32700 H 61.307456213274364 154.28353897545225 90.38867300478307 H 0.0 **** 0.06
32701 C 167.87818550182678 61.283204724924275 75.00109767132061 C 0.0 **** -0.24
32702 H 167.16515518788316 61.50617422782122 75.79539706368574 H 0.0 **** 0.06
32703 H 167.84411252466884 60.21866889052363 74.76997731029961 H 0.0 **** 0.06
32704 H 168.88253407131867 61.552612715555824 75.32817017872067 H 0.0 **** 0.06
32705 H 167.61961084771355 61.85699019613136 74.11008108891427 H 0.0 **** 0.06
32706 C 78.76292406900944 101.4952259015936 73.86899750865159 C 0.0 **** -0.24
32707 H 78.02986920893625 100.8879109568823 73.33665805692881 H 0.0 **** 0.06
32708 H 78.46032752418387 102.5414020649409 73.83565253886765 H 0.0 **** 0.06
32709 H 79.73822471346614 101.38377289223511 73.39536155779545 H 0.0 **** 0.06
32710 H 78.82297373057048 101.1664398884209 74.90567002368648 H 0.0 **** 0.06
32711 C 41.42695169876799 160.23485011427584 126.83163767551868 C 0.0 **** -0.24
32712 H 40.35258435691088 160.09976537833444 126.70544706097262 H 0.0 **** 0.06
32713 H 41.62908200884897 161.2567063014254 127.15287654231672 H 0.0 **** 0.06
32714 H 41.9309545795366 160.04457502506878 125.88435439464358 H 0.0 **** 0.06
32715 H 41.793531581702666 159.53760855673272 127.58517967219485 H 0.0 **** 0.06
32716 C 85.18410301478161 72.56019593380056 133.0188411016302 C 0.0 **** -0.24
32717 H 84.64467928252009 73.04565628310105 132.20537725635 H 0.0 **** 0.06
32718 H 84.64713351993237 71.66261623203535 133.32585344602057 H 0.0 **** 0.06
32719 H 85.26017465097539 73.24497593227515 133.8627389483495 H 0.0 **** 0.06
32720 H 86.18374644778129 72.28865722080253 132.67958327770248 H 0.0 **** 0.06
32721 C 85.90232298417857 91.33259221555664 74.03637597694757 C 0.0 **** -0.24
32722 H 85.13364004170728 91.9415434238552 74.51297025825812 H 0.0 **** 0.06
32723 H 85.59024744104141 90.28829362132092 74.03891283531243 H 0.0 **** 0.06
32724 H 86.83780899132 91.43354995640595 74.58651286858611 H 0.0 **** 0.06
32725 H 86.04592178828193 91.66727256487695 73.00958068858694 H 0.0 **** 0.06
32726 C 40.87182092467407 137.5114571937205 43.15240502964707 C 0.0 **** -0.24
32727 H 41.31860687840117 137.897197494441 44.069216833180704 H 0.0 **** 0.06
32728 H 39.80032710735907 137.7158966815647 43.157059346565006 H 0.0 **** 0.06
32729 H 41.03641558292395 136.43564258970088 43.093196324718136 H 0.0 **** 0.06
32730 H 41.33054167806023 137.99765460646285 42.292082727440715 H 0.0 **** 0.06
32731 C 109.4862406584392 113.91279626323602 175.769081616291 C 0.0 **** -0.24
32732 H 109.5757772960031 112.86660325475857 175.47568678857533 H 0.0 **** 0.06
32733 H 110.25112296911449 114.49884041498395 175.26037597877612 H 0.0 **** 0.06
32734 H 109.61848150933288 113.9990391567896 176.84775564649658 H 0.0 **** 0.06
32735 H 108.49904056124241 114.28300590927618 175.49272148729636 H 0.0 **** 0.06
32736 C 22.677662310023706 14.371110764967739 136.16330728559416 C 0.0 **** -0.24
32737 H 23.44248498755715 15.1206979195739 136.36943959010551 H 0.0 **** 0.06
32738 H 22.971663133104173 13.419926718816967 136.60679974229396 H 0.0 **** 0.06
32739 H 22.568971187269298 14.251996818796897 135.0850776011414 H 0.0 **** 0.06
32740 H 21.728587164376634 14.694921263241369 136.59010262276212 H 0.0 **** 0.06
32741 C 95.97802632688142 197.5592810097101 17.464243895666527 C 0.0 **** -0.24
32742 H 95.19536647424046 197.01242901213232 16.93747012897194 H 0.0 **** 0.06
32743 H 96.59529310925798 196.8578317066358 18.025958893889907 H 0.0 **** 0.06
32744 H 95.52336210632718 198.27416337444413 18.150362540752184 H 0.0 **** 0.06
32745 H 96.59806242551893 198.0914005683394 16.74262616293241 H 0.0 **** 0.06
32746 C 141.06149701580716 135.1039945818914 180.63409604629868 C 0.0 **** -0.24
32747 H 140.9052860130305 134.17326142475446 181.17918048385482 H 0.0 **** 0.06
32748 H 141.6691256417755 135.7794163179591 181.23654029445947 H 0.0 **** 0.06
32749 H 140.09777101858072 135.5684364704748 180.42529932575002 H 0.0 **** 0.06
32750 H 141.57429261072576 134.89269639777018 179.69561648015048 H 0.0 **** 0.06
32751 C 129.697826229574 94.00125394271366 14.972639806075989 C 0.0 **** -0.24
32752 H 128.9543495327169 93.77193533700587 15.73648764886127 H 0.0 **** 0.06
32753 H 129.5824885858234 95.03681898060783 14.6533023519209 H 0.0 **** 0.06
32754 H 129.5573456555423 93.33958069868073 14.118987164752468 H 0.0 **** 0.06
32755 H 130.6970870173007 93.85646755970713 15.38422203520392 H 0.0 **** 0.06
32756 C 206.5319186567675 147.72599681709954 74.5241356108213 C 0.0 **** -0.24
32757 H 207.48280558195358 147.99011209790842 74.0599564076116 H 0.0 **** 0.06
32758 H 206.62822143249372 146.76443437245422 75.0276726656964 H 0.0 **** 0.06
32759 H 205.75965911135572 147.65972666940985 73.75744949064597 H 0.0 **** 0.06
32760 H 206.25829541065303 148.49145020908628 75.25093653007718 H 0.0 **** 0.06
32761 C 13.915836919157755 188.3408612499145 126.90528647947234 C 0.0 **** -0.24
32762 H 14.496644674651861 189.00810792941846 127.54182740539026 H 0.0 **** 0.06
32763 H 13.574458838426537 187.48617704555056 127.49042328024142 H 0.0 **** 0.06
32764 H 14.539331847943302 187.9914713107003 126.08127015077388 H 0.0 **** 0.06
32765 H 13.054735112230844 188.87663599068006 126.50687058108254 H 0.0 **** 0.06
32766 C 91.09261101313903 24.511461209816815 36.15383236956255 C 0.0 **** -0.24
32767 H 91.46743014969881 24.781160534152377 37.140245059245245 H 0.0 **** 0.06
32768 H 90.05411765932952 24.831257948075972 36.060004008424556 H 0.0 **** 0.06
32769 H 91.15245513144141 23.43083858931817 36.024675222515555 H 0.0 **** 0.06
32770 H 91.69520515339521 25.002878772734817 35.38978248741971 H 0.0 **** 0.06
32771 C 148.22386879715458 28.580591440488803 129.3468322309983 C 0.0 **** -0.24
32772 H 147.97336589719936 27.91729525221359 128.51870445867883 H 0.0 **** 0.06
32773 H 147.459949791488 29.354448120997347 129.43638538391298 H 0.0 **** 0.06
32774 H 149.1918729543023 29.045312719893644 129.1586800960061 H 0.0 **** 0.06
32775 H 148.26934093606775 28.005945233199782 130.27139057994214 H 0.0 **** 0.06
32776 C 162.94761120154095 157.351847279438 42.2698473469041 C 0.0 **** -0.24
32777 H 163.68641495485784 156.79975177068536 41.68915922450327 H 0.0 **** 0.06
32778 H 161.98534911955406 157.31949953864495 41.758419489298944 H 0.0 **** 0.06
32779 H 163.26891830784194 158.38874192580477 42.37354107883243 H 0.0 **** 0.06
32780 H 162.85095744810323 156.90114395766813 43.257551099653085 H 0.0 **** 0.06
32781 C 16.7151307927671 196.73692933050066 109.95030448570806 C 0.0 **** -0.24
32782 H 16.839647574733533 196.93067050062126 108.88577170762478 H 0.0 **** 0.06
32783 H 16.170727141528204 195.8022735731668 110.08838573738767 H 0.0 **** 0.06
32784 H 16.15458233378368 197.55397069019503 110.40524732741052 H 0.0 **** 0.06
32785 H 17.694053407232303 196.66079388204116 110.42345989639112 H 0.0 **** 0.06
32786 C 39.32715091684861 48.06048373166112 48.25745939961496 C 0.0 **** -0.24
32787 H 38.70644848671893 48.439168545623716 47.44574120197876 H 0.0 **** 0.06
32788 H 39.919939090810146 47.21916391311822 47.898722341141706 H 0.0 **** 0.06
32789 H 38.68986347245365 47.733342852313285 49.07869425404729 H 0.0 **** 0.06
32790 H 39.99094050363561 48.851503266070324 48.605471764492805 H 0.0 **** 0.06
32791 C 72.60590068115414 45.64796128827987 36.36855531434219 C 0.0 **** -0.24
32792 H 72.81208302442644 44.682657806597945 36.829583670663965 H 0.0 **** 0.06
32793 H 72.57645637644754 45.533370653350914 35.2846511817861 H 0.0 **** 0.06
32794 H 73.39175767923484 46.35412532863512 36.63800526493446 H 0.0 **** 0.06
32795 H 71.64417164227098 46.020437291278995 36.720685989052186 H 0.0 **** 0.06
32796 C 12.226292577887236 83.78489748642731 175.3654917042516 C 0.0 **** -0.24
32797 H 12.189502931105054 84.25676102454703 174.38324505902654 H 0.0 **** 0.06
32798 H 13.232526055977317 83.40909361147989 175.5502503789269 H 0.0 **** 0.06
32799 H 11.517324761265883 82.95766482860692 175.39812450973514 H 0.0 **** 0.06
32800 H 11.965804699754273 84.51688333369741 176.12976450618146 H 0.0 **** 0.06
32801 C 141.01493871973827 180.30938117323294 4.51529393935715 C 0.0 **** -0.24
32802 H 141.1746881523979 181.09508102498813 5.253446357072278 H 0.0 **** 0.06
32803 H 141.08179115919677 180.73320569991404 3.5128042011617424 H 0.0 **** 0.06
32804 H 140.02767734338113 179.87095474307867 4.658874463289408 H 0.0 **** 0.06
32805 H 141.77565896918918 179.53719472960447 4.63470480175107 H 0.0 **** 0.06
32806 C 114.98320402567538 123.81132793252517 107.75940528468942 C 0.0 **** -0.24
32807 H 115.39836266242173 124.77508631835447 108.0547055075101 H 0.0 **** 0.06
32808 H 114.74902088696365 123.82751632917724 106.69565987081558 H 0.0 **** 0.06
32809 H 114.07316214973127 123.61789197410296 108.32867189801294 H 0.0 **** 0.06
32810 H 115.71073222903789 123.02552392159426 107.96106067222308 H 0.0 **** 0.06
32811 C 188.40001289363846 9.92392472889182 155.73011108223216 C 0.0 **** -0.24
32812 H 189.4065337588645 9.80121587282153 155.3320603373935 H 0.0 **** 0.06
32813 H 188.45274391233508 10.102575796953317 156.80475678985567 H 0.0 **** 0.06
32814 H 187.8209019479679 9.020328346649734 155.54019998669696 H 0.0 **** 0.06
32815 H 187.91862073814855 10.772222497545329 155.24356958919947 H 0.0 **** 0.06
32816 C 48.54383880000664 114.7652757512585 157.0854787691316 C 0.0 **** -0.24
32817 H 47.692804204757024 115.12682029424717 157.66239712801126 H 0.0 **** 0.06
32818 H 49.46914754390984 115.06070587795232 157.5797721033485 H 0.0 **** 0.06
32819 H 48.51312292201291 115.19484130213358 156.08408218847137 H 0.0 **** 0.06
32820 H 48.50001815316678 113.67777478475573 157.01575389481377 H 0.0 **** 0.06
32821 C 105.17919832831569 71.16640939778335 132.09093344711232 C 0.0 **** -0.24
32822 H 105.07263251596476 70.25639232225018 131.50025773969952 H 0.0 **** 0.06
32823 H 106.23709888973718 71.41093502340652 132.19293726263822 H 0.0 **** 0.06
32824 H 104.74498480062044 71.01088857108613 133.07806160766177 H 0.0 **** 0.06
32825 H 104.66383257342318 71.98670533903942 131.59129173092396 H 0.0 **** 0.06
32826 C 190.7953781556909 133.45886949823318 215.8006157289816 C 0.0 **** -0.24
32827 H 189.74179973271615 133.2021056652306 215.69162961610863 H 0.0 **** 0.06
32828 H 190.9609699599843 134.47369779618936 215.43662940346383 H 0.0 **** 0.06
32829 H 191.4002871068053 132.76191764276723 215.2207593630722 H 0.0 **** 0.06
32830 H 191.07778329868913 133.39838629885958 216.85140697632337 H 0.0 **** 0.06
32831 C 95.87551229259776 140.63353226841542 143.00931626306658 C 0.0 **** -0.24
32832 H 96.8621292024319 140.19494644373697 143.16058983521634 H 0.0 **** 0.06
32833 H 95.31695312852531 140.60240883656917 143.94515660197396 H 0.0 **** 0.06
32834 H 95.33982329202138 140.06736844010226 142.2472710198066 H 0.0 **** 0.06
32835 H 95.98313520734956 141.66800887749343 142.68447079874818 H 0.0 **** 0.06
32836 C 19.17081961700808 129.18376755395394 32.79242157364783 C 0.0 **** -0.24
32837 H 18.39537196057171 129.46087036873342 33.50718035378921 H 0.0 **** 0.06
32838 H 19.578081777792534 128.20803900496486 33.057445098040375 H 0.0 **** 0.06
32839 H 19.96695760913292 129.92759776976715 32.8141018757367 H 0.0 **** 0.06
32840 H 18.74226327237818 129.13982932285472 31.791137883097008 H 0.0 **** 0.06
32841 C 24.998811952267232 109.41734334640687 143.61214424704048 C 0.0 **** -0.24
32842 H 25.380547126232855 110.09973070820807 142.85294870165444 H 0.0 **** 0.06
32843 H 24.580631812774357 108.53384058273726 143.12931676006758 H 0.0 **** 0.06
32844 H 24.221702052778113 109.9165990170135 144.19180029507146 H 0.0 **** 0.06
32845 H 25.812024441583375 109.12005229792682 144.27410921049642 H 0.0 **** 0.06
32846 C 78.02955498498642 154.81923717603365 13.109420087824134 C 0.0 **** -0.24
32847 H 78.46875721870538 155.27572479646972 13.997290918648133 H 0.0 **** 0.06
32848 H 77.91589290388328 153.7468164312878 13.272023399523391 H 0.0 **** 0.06
32849 H 78.68126557718745 154.9912116842039 12.253115702687182 H 0.0 **** 0.06
32850 H 77.05281814133184 155.2640454615705 12.918716479287298 H 0.0 **** 0.06
32851 C 110.9246953197909 59.41879987375657 49.58140008728327 C 0.0 **** -0.24
32852 H 111.83221102774776 59.60368083184221 49.00724993606599 H 0.0 **** 0.06
32853 H 111.11603125486248 59.61206620378448 50.63685109017402 H 0.0 **** 0.06
32854 H 110.6181637161451 58.379992518412905 49.45165486829521 H 0.0 **** 0.06
32855 H 110.13146594105841 60.077399594780445 49.228881035088875 H 0.0 **** 0.06
32856 C 115.18163461861157 43.55491077881179 36.564509082198015 C 0.0 **** -0.24
32857 H 114.61384537791015 44.360348939756534 36.09834721211797 H 0.0 **** 0.06
32858 H 115.80177227697594 43.066045585919 35.81173735020087 H 0.0 **** 0.06
32859 H 114.49357446351387 42.82827917043572 36.99663159508572 H 0.0 **** 0.06
32860 H 115.81664129319766 43.96574155341236 37.34850825965708 H 0.0 **** 0.06
32861 C 183.989359939595 57.145376282602626 196.53321313579315 C 0.0 **** -0.24
32862 H 183.99404372905803 57.84150535825614 197.37165663441277 H 0.0 **** 0.06
32863 H 183.33936806153304 57.527420848141645 195.74661436290555 H 0.0 **** 0.06
32864 H 183.62402349437372 56.17529461855389 196.86899426920974 H 0.0 **** 0.06
32865 H 185.0028526865888 57.03742775737297 196.14651854234646 H 0.0 **** 0.06
32866 C 85.01854948045998 140.51083506283652 30.76868135434428 C 0.0 **** -0.24
32867 H 85.03407907663332 139.4263136246966 30.88244092531231 H 0.0 **** 0.06
32868 H 85.40395046713157 140.77874051960777 29.785119014896395 H 0.0 **** 0.06
32869 H 85.640580060076 140.96613211342265 31.540096100558046 H 0.0 **** 0.06
32870 H 83.99472117290772 140.87157768917376 30.868453567140293 H 0.0 **** 0.06
32871 C 1.556460992900405 106.28762114495031 209.18339360759546 C 0.0 **** -0.24
32872 H 1.959335241728212 106.07600916252626 210.17503713471368 H 0.0 **** 0.06
32873 H 2.2810962499292415 106.87137276234434 208.6149466485621 H 0.0 **** 0.06
32874 H 0.630692146990647 106.85413113373436 209.28180400245378 H 0.0 **** 0.06
32875 H 1.3569678137391108 105.35052978026162 208.66546373789708 H 0.0 **** 0.06
32876 C 196.32289439891693 61.220289697319174 106.23359505432082 C 0.0 **** -0.24
32877 H 195.847968891953 60.766526907803666 105.36363457621881 H 0.0 **** 0.06
32878 H 197.0145199307231 61.9961401686341 105.90596065649778 H 0.0 **** 0.06
32879 H 196.8688759483751 60.456734675042185 106.78835358310734 H 0.0 **** 0.06
32880 H 195.55965191422982 61.65985974386257 106.87613861645146 H 0.0 **** 0.06
32881 C 25.93269140100405 81.62861553593119 31.682037962653567 C 0.0 **** -0.24
32882 H 26.62685792734186 82.42931360163702 31.937477936383374 H 0.0 **** 0.06
32883 H 25.959087639746016 80.86500068701541 32.46034944444108 H 0.0 **** 0.06
32884 H 26.22268622356779 81.18680031607654 30.72855830558035 H 0.0 **** 0.06
32885 H 24.92374559087473 82.03327350677166 31.60331431705029 H 0.0 **** 0.06
32886 C 52.79318342026468 192.0887613057419 110.50085820904367 C 0.0 **** -0.24
32887 H 53.27633660156097 192.41270070356808 111.4234087116347 H 0.0 **** 0.06
32888 H 52.03673073548555 192.8181441390372 110.21189947788271 H 0.0 **** 0.06
32889 H 52.322201746934255 191.11905359636188 110.65964531810569 H 0.0 **** 0.06
32890 H 53.53922242242176 192.00506418760415 109.71090901586372 H 0.0 **** 0.06
32891 C 144.4752031445384 183.75659669448106 22.727871070825174 C 0.0 **** -0.24
32892 H 143.7527310015991 184.5409285014655 22.50489408804249 H 0.0 **** 0.06
32893 H 145.32369869649625 183.84045193143027 22.04830154099264 H 0.0 **** 0.06
32894 H 144.00363653494503 182.78150167491663 22.60271203251827 H 0.0 **** 0.06
32895 H 144.821745560485 183.8635125629916 23.755537592374395 H 0.0 **** 0.06
32896 C 198.50589134256694 179.73677901265472 178.67188687968593 C 0.0 **** -0.24
32897 H 197.42817328465995 179.70837371705096 178.50906773090486 H 0.0 **** 0.06
32898 H 199.01679302884818 179.3582995086951 177.7855878909957 H 0.0 **** 0.06
32899 H 198.76025280728044 179.11617225449965 179.53143131906432 H 0.0 **** 0.06
32900 H 198.81693451581376 180.76384719106957 178.85950408609298 H 0.0 **** 0.06
32901 C 151.19955405595925 208.07490051106706 25.04769590994738 C 0.0 **** -0.24
32902 H 151.09728176516433 207.7226515926118 24.020777592089303 H 0.0 **** 0.06
32903 H 150.22316091704045 208.37046320732293 25.429768211230623 H 0.0 **** 0.06
32904 H 151.8747511765858 208.93110004274084 25.07178680945887 H 0.0 **** 0.06
32905 H 151.60575032981592 207.27492742331316 25.666366077242316 H 0.0 **** 0.06
32906 C 73.597336440781 119.33602583074087 159.83390491270683 C 0.0 **** -0.24
32907 H 73.06361823821108 118.43627455111827 160.14002686877882 H 0.0 **** 0.06
32908 H 73.47841007192692 119.47955311509845 158.75914698476026 H 0.0 **** 0.06
32909 H 74.65520826998362 119.23021263073402 160.07142517007765 H 0.0 **** 0.06
32910 H 73.19014458142611 120.19807468166782 160.36275339159616 H 0.0 **** 0.06
32911 C 74.46594142774968 12.987331682787499 129.4953925608092 C 0.0 **** -0.24
32912 H 73.96482000570974 12.777807421379407 128.5506666581187 H 0.0 **** 0.06
32913 H 75.49653320881318 13.284218883467076 129.30097109379165 H 0.0 **** 0.06
32914 H 74.45674660885287 12.09339987036077 130.1184651850666 H 0.0 **** 0.06
32915 H 73.94624081471524 13.794972390177406 130.01074573567445 H 0.0 **** 0.06
32916 C 27.686317379942295 80.71093220376308 108.7061791383556 C 0.0 **** -0.24
32917 H 27.35061784728157 80.44105701277779 107.70491426781871 H 0.0 **** 0.06
32918 H 27.25671208875781 81.67225180859852 108.9877427113384 H 0.0 **** 0.06
32919 H 28.774006132118586 80.78134726985967 108.7185093768768 H 0.0 **** 0.06
32920 H 27.36406764078731 79.94729016344674 109.41489353522303 H 0.0 **** 0.06
32921 C 78.12385638327818 153.55728911282182 114.65984928268317 C 0.0 **** -0.24
32922 H 77.22031487483788 153.07300493131356 115.03009475394894 H 0.0 **** 0.06
32923 H 77.9178719240749 154.61083845093407 114.46732044210928 H 0.0 **** 0.06
32924 H 78.44198906606546 153.07311586429694 113.73695872274776 H 0.0 **** 0.06
32925 H 78.9137449874675 153.4711195509422 115.40627807571236 H 0.0 **** 0.06
32926 C 171.08548191878032 68.7520854160552 114.99228663618682 C 0.0 **** -0.24
32927 H 171.85413271837757 69.38936273871082 115.42957681455549 H 0.0 **** 0.06
32928 H 171.49143902497727 68.24098053258373 114.11910122110301 H 0.0 **** 0.06
32929 H 170.23425530542033 69.36373104984688 114.69240663203483 H 0.0 **** 0.06
32930 H 170.76308131380793 68.01546637342463 115.72728687435752 H 0.0 **** 0.06
32931 C 68.55288179272151 33.27851875778917 165.22922361546892 C 0.0 **** -0.24
32932 H 68.5910980937503 32.612006046285785 164.36708530213954 H 0.0 **** 0.06
32933 H 67.78811412844175 34.03940759994862 165.06575567495145 H 0.0 **** 0.06
32934 H 69.52215578083792 33.75999665587106 165.3593009328433 H 0.0 **** 0.06
32935 H 68.30843490679348 32.70384688264393 166.12217774649076 H 0.0 **** 0.06
32936 C 45.454471709460634 18.691843541374567 208.86765645955694 C 0.0 **** -0.24
32937 H 46.157781613024866 18.67683338026319 209.70092534172866 H 0.0 **** 0.06
32938 H 45.40601520475511 17.701035295337064 208.41580236207852 H 0.0 **** 0.06
32939 H 45.78787402399287 19.414965460459342 208.12426174632392 H 0.0 **** 0.06
32940 H 44.46644734349957 18.97442921252319 209.23262542649016 H 0.0 **** 0.06
32941 C 193.6365102350622 138.40067243823484 67.83533950792253 C 0.0 **** -0.24
32942 H 193.5853106625927 137.3185572610355 67.70735702694662 H 0.0 **** 0.06
32943 H 193.27300975606462 138.89074947064336 66.93170791620935 H 0.0 **** 0.06
32944 H 194.66970278887032 138.69555055834394 68.0184082796523 H 0.0 **** 0.06
32945 H 193.01831505321638 138.69566573709858 68.68341899293398 H 0.0 **** 0.06
32946 C 48.20866251961695 11.863688012541672 156.28941233837742 C 0.0 **** -0.24
32947 H 47.37338236400058 11.17013716594687 156.20163766778109 H 0.0 **** 0.06
32948 H 48.931056714161684 11.473373467705287 157.00610147323653 H 0.0 **** 0.06
32949 H 47.84303726525508 12.831239535081622 156.63249593139903 H 0.0 **** 0.06
32950 H 48.68775157556314 11.98123358541936 155.3170282247122 H 0.0 **** 0.06
32951 C 122.28636410938485 193.7505278220499 28.616425460856007 C 0.0 **** -0.24
32952 H 123.34774629732173 193.51714649452347 28.693172598834693 H 0.0 **** 0.06
32953 H 121.91894709706234 193.45502780204703 27.63332647006088 H 0.0 **** 0.06
32954 H 122.1389327252544 194.82278900987234 28.751336896545666 H 0.0 **** 0.06
32955 H 121.73806185209214 193.20873421497313 29.387268806329146 H 0.0 **** 0.06
32956 C 54.114253553916996 201.4862662434209 153.65421523008928 C 0.0 **** -0.24
32957 H 53.32338961794818 201.15229147849885 152.9824256564192 H 0.0 **** 0.06
32958 H 54.38936075140785 200.6730885949823 154.32493742051207 H 0.0 **** 0.06
32959 H 53.76022219501215 202.33573956839098 154.23799429584346 H 0.0 **** 0.06
32960 H 54.98431243933277 201.78553565229464 153.06966027432628 H 0.0 **** 0.06
32961 C 40.39606578575058 125.00254562232622 28.9174293442955 C 0.0 **** -0.24
32962 H 41.11263822342545 125.23259912242334 29.70514213764369 H 0.0 **** 0.06
32963 H 39.886657114299794 124.06785807649537 29.151801128428957 H 0.0 **** 0.06
32964 H 40.92164252530068 124.90118379392804 27.967012048583967 H 0.0 **** 0.06
32965 H 39.665996682965385 125.80802525023536 28.844150459163245 H 0.0 **** 0.06
32966 C 26.539796706992718 102.35561394596395 106.11534615893144 C 0.0 **** -0.24
32967 H 26.163282205954374 103.26936087648299 105.65672485986177 H 0.0 **** 0.06
32968 H 27.42745838211789 102.5846028012251 106.70530801953076 H 0.0 **** 0.06
32969 H 26.796517155925414 101.63797944019431 105.33556639615081 H 0.0 **** 0.06
32970 H 25.77297948431783 101.9301091445357 106.7618530262762 H 0.0 **** 0.06
32971 C 94.72074042345803 198.91553077092328 33.953112172605984 C 0.0 **** -0.24
32972 H 95.67227743223275 198.59483334849625 34.37591189191704 H 0.0 **** 0.06
32973 H 94.76814756505233 199.9783738574306 33.715031764147454 H 0.0 **** 0.06
32974 H 93.92432221530659 198.74058977575362 34.67686754071042 H 0.0 **** 0.06
32975 H 94.51725245524297 198.348599082025 33.044639694084765 H 0.0 **** 0.06
32976 C 157.92558826870805 66.12028707072955 0.5190464639913586 C 0.0 **** -0.24
32977 H 158.38438592851566 65.7242358827786 1.424793831764454 H 0.0 **** 0.06
32978 H 158.6359644142267 66.77068295239087 0.0072905748463441 H 0.0 **** 0.06
32979 H 157.03415301222321 66.69048799662653 0.7823433332446967 H 0.0 **** 0.06
32980 H 157.64879797911914 65.29593007160815 -0.13849731225835882 H 0.0 **** 0.06
32981 C 50.24034930711382 184.26068183276666 94.80644589005361 C 0.0 **** -0.24
32982 H 50.99853070191119 183.87744290753284 95.48940272330476 H 0.0 **** 0.06
32983 H 50.135367696509746 183.5804799541423 93.96079441656782 H 0.0 **** 0.06
32984 H 50.541079195069244 185.24511039169568 94.44590309412506 H 0.0 **** 0.06
32985 H 49.28757517029824 184.3416069343409 95.32960715343255 H 0.0 **** 0.06
32986 C 157.74978511740244 133.72529003025727 56.92022446208399 C 0.0 **** -0.24
32987 H 157.362205849127 134.2781080477704 57.77653322866095 H 0.0 **** 0.06
32988 H 157.85299824446633 132.67308850308223 57.185119027319374 H 0.0 **** 0.06
32989 H 158.72203418762143 134.12738974675915 56.638762799671014 H 0.0 **** 0.06
32990 H 157.05894795636425 133.8237837416923 56.08243441973892 H 0.0 **** 0.06
32991 C 213.23715934295024 56.24407257277625 137.0299870604261 C 0.0 **** -0.24
32992 H 214.17013321219278 56.21872564771411 136.4664008294959 H 0.0 **** 0.06
32993 H 212.41312718006043 55.946068601476156 136.3813617665465 H 0.0 **** 0.06
32994 H 213.063500231915 57.25532509045405 137.39764178006948 H 0.0 **** 0.06
32995 H 213.3039353771724 55.557243801751326 137.87376211220084 H 0.0 **** 0.06
32996 C 154.28907653342748 72.89071011165015 44.09589693819419 C 0.0 **** -0.24
32997 H 154.5902352553743 73.83965430102728 43.65090648319148 H 0.0 **** 0.06
32998 H 154.72894874794338 72.06937272307397 43.52945940432079 H 0.0 **** 0.06
32999 H 153.20329717252196 72.80667421106943 44.07384573062981 H 0.0 **** 0.06
33000 H 154.63727478429962 72.84688658046298 45.12794956094666 H 0.0 **** 0.06
33001 C 62.819587073890034 102.35812758399561 162.85444106454418 C 0.0 **** -0.24
33002 H 62.89815460949937 101.32191726579833 163.18238076082554 H 0.0 **** 0.06
33003 H 63.81744524831019 102.79173999647423 162.77778271979463 H 0.0 **** 0.06
33004 H 62.23137211611049 102.92395807811045 163.57738585083774 H 0.0 **** 0.06
33005 H 62.33100514809185 102.39451648926968 161.88152603199813 H 0.0 **** 0.06
33006 C 123.38196842930716 64.38817835862426 4.374577771753053 C 0.0 **** -0.24
33007 H 122.53744002062041 65.07391365487626 4.29787035283141 H 0.0 **** 0.06
33008 H 124.2435971202683 64.81441206222439 3.8601985585017644 H 0.0 **** 0.06
33009 H 123.11955058835599 63.43503701671199 3.9166219025177043 H 0.0 **** 0.06
33010 H 123.62681429164434 64.23156012228708 5.425594130117702 H 0.0 **** 0.06
33011 C 177.89146253821195 58.481289305951805 186.16843269655652 C 0.0 **** -0.24
33012 H 176.85128695902546 58.70576336992846 186.40473398145866 H 0.0 **** 0.06
33013 H 178.52249992144755 58.75044916814201 187.01521420278164 H 0.0 **** 0.06
33014 H 178.19555151271723 59.05232637592556 185.29068973193756 H 0.0 **** 0.06
33015 H 177.99388372584303 57.41525276184041 185.96261446692452 H 0.0 **** 0.06
33016 C 123.07773655813735 64.5661552833033 21.81998415700002 C 0.0 **** -0.24
33017 H 122.80393135541583 63.83823695092643 22.583111101661643 H 0.0 **** 0.06
33018 H 122.39098137301586 65.41151816457456 21.8617220273847 H 0.0 **** 0.06
33019 H 123.02127137967814 64.10000631375291 20.835903381882957 H 0.0 **** 0.06
33020 H 124.09566133188441 64.91449489268898 21.998958547915265 H 0.0 **** 0.06
33021 C 12.339747085875729 140.92088892981315 152.1410048035881 C 0.0 **** -0.24
33022 H 12.429679550075491 139.84825934683005 152.3123642628587 H 0.0 **** 0.06
33023 H 11.744283583343076 141.0975442154907 151.24447689642471 H 0.0 **** 0.06
33024 H 13.332709190469586 141.35127358131632 152.007916633342 H 0.0 **** 0.06
33025 H 11.854024502219033 141.38718539859718 152.99800381558492 H 0.0 **** 0.06
33026 C 33.528577430622335 42.100030648762754 58.91916063262846 C 0.0 **** -0.24
33027 H 33.9432589671174 41.12246333384286 59.16454909988897 H 0.0 **** 0.06
33028 H 33.737353874258986 42.796212012240915 59.73235991134703 H 0.0 **** 0.06
33029 H 32.45088224661433 42.013432132253286 58.78241299684666 H 0.0 **** 0.06
33030 H 33.98384519621129 42.46807523621084 58.00062726275806 H 0.0 **** 0.06
33031 C 157.12527887657734 140.5031091486175 141.9767154450734 C 0.0 **** -0.24
33032 H 157.126573501969 140.06595578038093 142.9751669419827 H 0.0 **** 0.06
33033 H 158.06585703373685 141.02765700242128 141.808467364168 H 0.0 **** 0.06
33034 H 156.29658223590104 141.20732466025567 141.8899654431944 H 0.0 **** 0.06
33035 H 157.01045970343978 139.7145202062086 141.23434549600256 H 0.0 **** 0.06
33036 C 171.3271479409123 22.27735320455018 0.2007472159642134 C 0.0 **** -0.24
33037 H 170.9555190418423 21.252917023964258 0.24013791720403788 H 0.0 **** 0.06
33038 H 170.75441990504254 22.897984372214353 0.8909107556002027 H 0.0 **** 0.06
33039 H 171.21796471407828 22.663684810115313 -0.8120365861722405 H 0.0 **** 0.06
33040 H 172.37889144335202 22.293362258799846 0.4847691072751559 H 0.0 **** 0.06
33041 C 0.9411258178679631 140.07583721962027 40.2796968561143 C 0.0 **** -0.24
33042 H 1.5441991012170178 140.75739712534414 40.878131327627784 H 0.0 **** 0.06
33043 H 1.586248558154118 139.32283250879357 39.825962673395566 H 0.0 **** 0.06
33044 H 0.4292610362330507 140.63608102182337 39.49663461057361 H 0.0 **** 0.06
33045 H 0.2045022285477316 139.58695740246333 40.916677496437046 H 0.0 **** 0.06
33046 C 56.579921197207256 175.7769308704199 80.59884201577113 C 0.0 **** -0.24
33047 H 56.28093826692988 176.06564575735743 81.60639898934637 H 0.0 **** 0.06
33048 H 57.6410271437573 175.9852688835757 80.46223097076695 H 0.0 **** 0.06
33049 H 55.99992811727297 176.3452137003893 79.87139387597274 H 0.0 **** 0.06
33050 H 56.39687099285494 174.7117216139456 80.45737823682136 H 0.0 **** 0.06
33051 C 58.54293574021813 159.01906151136743 68.96383415949073 C 0.0 **** -0.24
33052 H 58.3026300532627 158.2698203874204 68.20918453205834 H 0.0 **** 0.06
33053 H 57.634392072296976 159.30568882015834 69.49365613869867 H 0.0 **** 0.06
33054 H 58.97494887163208 159.8955225314333 68.48152009155619 H 0.0 **** 0.06
33055 H 59.25984069186626 158.60301978894591 69.67139949584696 H 0.0 **** 0.06
33056 C 45.17169808802265 77.38920145937857 22.10985713396434 C 0.0 **** -0.24
33057 H 45.074642598652474 78.47454281611198 22.13173186752286 H 0.0 **** 0.06
33058 H 45.629701953686336 77.04688629118243 23.038594957586383 H 0.0 **** 0.06
33059 H 45.798064962108214 77.097650401534 21.266878098748435 H 0.0 **** 0.06
33060 H 44.185319017488794 76.93797175382343 22.001971916253638 H 0.0 **** 0.06
33061 C 88.35590228882796 28.026809764968903 187.50359170290744 C 0.0 **** -0.24
33062 H 89.15332325878428 28.47825531650784 186.91229578049058 H 0.0 **** 0.06
33063 H 87.56582870749327 27.67554805070074 186.8383713521909 H 0.0 **** 0.06
33064 H 87.95016268314964 28.768174938271372 188.19121599816614 H 0.0 **** 0.06
33065 H 88.75515968058704 27.185366090038727 188.06884491527455 H 0.0 **** 0.06
33066 C 6.026554272291207 154.03224700033985 60.36191156207991 C 0.0 **** -0.24
33067 H 6.183764850259934 154.12656684321377 59.28653917501299 H 0.0 **** 0.06
33068 H 6.9841469115418136 154.11302981185327 60.876657730166755 H 0.0 **** 0.06
33069 H 5.576523775758687 153.0637350458719 60.57903658562071 H 0.0 **** 0.06
33070 H 5.362195006912998 154.8262324795798 60.70249775754945 H 0.0 **** 0.06
33071 C 3.2473377799633525 126.6448489362931 44.09695228994741 C 0.0 **** -0.24
33072 H 2.1725637999606136 126.69625843640574 43.921852039735086 H 0.0 **** 0.06
33073 H 3.7680323063800643 127.20118957098055 43.3178326344368 H 0.0 **** 0.06
33074 H 3.5687488330347534 125.60431860115847 44.07731395157475 H 0.0 **** 0.06
33075 H 3.4774991972772966 127.07841795148425 45.069765095405785 H 0.0 **** 0.06
33076 C 142.50975764399146 198.11903351116655 190.504926485078 C 0.0 **** -0.24
33077 H 142.97847872137345 197.49733351725902 191.26772646238115 H 0.0 **** 0.06
33078 H 141.42795893459265 197.99216107248228 190.5477759345187 H 0.0 **** 0.06
33079 H 142.87241861975338 197.82024885856808 189.52136464860783 H 0.0 **** 0.06
33080 H 142.76191194817983 199.16377450530052 190.6832087822649 H 0.0 **** 0.06
33081 C 197.15868061333725 132.59561386987616 62.8607636400112 C 0.0 **** -0.24
33082 H 196.50662603191347 132.7665575498924 63.71752511407466 H 0.0 **** 0.06
33083 H 196.97772887980267 133.36367221643184 62.107310243206925 H 0.0 **** 0.06
33084 H 196.94997929985965 131.61398693673613 62.43555726666814 H 0.0 **** 0.06
33085 H 198.19930194733047 132.63895751848577 63.180844394072196 H 0.0 **** 0.06
33086 C 39.27673846684837 46.7719508515537 202.39612823907768 C 0.0 **** -0.24
33087 H 38.93679798160127 45.76073784552017 202.62271791776737 H 0.0 **** 0.06
33088 H 38.840296688503145 47.469902395573456 203.11066539997924 H 0.0 **** 0.06
33089 H 38.96592046351134 47.04137725377075 201.38664781740698 H 0.0 **** 0.06
33090 H 40.3634430149267 46.81307574537891 202.46512166396545 H 0.0 **** 0.06
33091 C 202.56085083570576 173.6096458139789 214.00775992063927 C 0.0 **** -0.24
33092 H 203.6497765213475 173.62461463440567 213.97698814208317 H 0.0 **** 0.06
33093 H 202.1652105895432 174.123441518031 213.13117112267417 H 0.0 **** 0.06
33094 H 202.21600058121678 174.11236330199355 214.91139622337596 H 0.0 **** 0.06
33095 H 202.21214285709783 172.57633117566627 214.01273605343894 H 0.0 **** 0.06
33096 C 131.4302867480613 131.47584406608934 72.94328780616974 C 0.0 **** -0.24
33097 H 130.37760719012203 131.55890768360308 72.67303547989889 H 0.0 **** 0.06
33098 H 131.9930564930636 131.08370920797574 72.09625852625214 H 0.0 **** 0.06
33099 H 131.53495677593406 130.80208307445963 73.79363270459731 H 0.0 **** 0.06
33100 H 131.81565496827324 132.460230156063 73.21097888875124 H 0.0 **** 0.06
33101 C 26.20072833354908 94.54359785637759 194.06610769845335 C 0.0 **** -0.24
33102 H 26.08042929657327 95.60412473986064 193.8413944709896 H 0.0 **** 0.06
33103 H 26.774010614869212 94.06703197113312 193.2717239764693 H 0.0 **** 0.06
33104 H 25.219435879900004 94.07474917645034 194.14069439995217 H 0.0 **** 0.06
33105 H 26.728731972071415 94.4324717732617 195.01378291024633 H 0.0 **** 0.06
33106 C 138.55512109178267 170.34492861402833 53.44713499395516 C 0.0 **** -0.24
33107 H 137.97952074088596 171.09045655086717 52.89871319955786 H 0.0 **** 0.06
33108 H 138.97901904143248 170.8007536728231 54.342500951766226 H 0.0 **** 0.06
33109 H 139.35857933436512 169.9693988046212 52.814989980000675 H 0.0 **** 0.06
33110 H 137.90226777281595 169.52035232466093 53.73413609246897 H 0.0 **** 0.06
33111 C 170.60839531185488 143.78806727169888 65.82642180399421 C 0.0 **** -0.24
33112 H 169.51956739695413 143.83061175934324 65.8197238134212 H 0.0 **** 0.06
33113 H 170.9309699217289 142.78529766960776 66.10637873054361 H 0.0 **** 0.06
33114 H 170.99548350629843 144.50831479424193 66.5472105200008 H 0.0 **** 0.06
33115 H 170.9882595140535 144.02784029323198 64.83358636312096 H 0.0 **** 0.06
33116 C 166.91657151583235 14.823168543485437 55.442410790967145 C 0.0 **** -0.24
33117 H 167.20901997410394 15.549912510034886 56.20129567564756 H 0.0 **** 0.06
33118 H 166.9259347066852 13.822721433943443 55.87530113847447 H 0.0 **** 0.06
33119 H 167.6172527520368 14.86608505632448 54.608579204682385 H 0.0 **** 0.06
33120 H 165.91259365327488 15.05543237978361 55.08573710818584 H 0.0 **** 0.06
33121 C 38.345566520755156 159.74648105081005 122.81293385649447 C 0.0 **** -0.24
33122 H 39.277746141937115 159.41901255956896 122.35413035399536 H 0.0 **** 0.06
33123 H 38.30146823975744 159.38787554257544 123.84114568387697 H 0.0 **** 0.06
33124 H 37.50337401637316 159.34426550870674 122.25032247076787 H 0.0 **** 0.06
33125 H 38.30075521594124 160.83563466204276 122.80509175636912 H 0.0 **** 0.06
33126 C 147.93943262128516 81.38811577732292 210.34230099219303 C 0.0 **** -0.24
33127 H 147.67800010806894 80.67322872776157 209.56187886905832 H 0.0 **** 0.06
33128 H 147.99145473855424 80.87504148646974 211.30216691738286 H 0.0 **** 0.06
33129 H 147.17913522721938 82.16854550107416 210.38723954072384 H 0.0 **** 0.06
33130 H 148.9071414358229 81.83649583500215 210.1148715967803 H 0.0 **** 0.06
33131 C 177.01086871354323 90.34152786654192 89.78637085198193 C 0.0 **** -0.24
33132 H 177.48304362028597 89.82003256770264 88.95279801454205 H 0.0 **** 0.06
33133 H 177.62095269190002 90.22245736777757 90.68113220188508 H 0.0 **** 0.06
33134 H 176.02050081876303 89.92128483710218 89.96236338308216 H 0.0 **** 0.06
33135 H 176.91927945789797 91.40049653360813 89.54663580432026 H 0.0 **** 0.06
33136 C 190.56842284238832 79.9281206506962 145.71534658678308 C 0.0 **** -0.24
33137 H 189.75312963898602 80.63346957729499 145.87842335690863 H 0.0 **** 0.06
33138 H 190.87102832558168 79.49649331827175 146.66991765309643 H 0.0 **** 0.06
33139 H 191.41423667717453 80.44896757733164 145.26663000438805 H 0.0 **** 0.06
33140 H 190.23303483543776 79.13495149117313 145.04737750032967 H 0.0 **** 0.06
33141 C 170.30812785806404 145.46948181616472 155.15413810220957 C 0.0 **** -0.24
33142 H 170.01493294149404 144.51792454817655 154.7095566588087 H 0.0 **** 0.06
33143 H 170.3436195336833 145.3678125182945 156.2388614925281 H 0.0 **** 0.06
33144 H 169.58189898528246 146.2352684015649 154.883563438299 H 0.0 **** 0.06
33145 H 171.2929357397208 145.75502372604552 154.78329392440708 H 0.0 **** 0.06
33146 C 198.95464250138852 22.77703307579941 190.77425560046842 C 0.0 **** -0.24
33147 H 198.7996395230615 23.829850616470054 190.5372187921694 H 0.0 **** 0.06
33148 H 198.3580273591676 22.16139435159741 190.10107993959116 H 0.0 **** 0.06
33149 H 198.6523375672798 22.588193616206183 191.8039664867246 H 0.0 **** 0.06
33150 H 200.01014440824184 22.530033723701763 190.6539135616251 H 0.0 **** 0.06
33151 C 202.50289719667114 181.048772433429 18.06249777939388 C 0.0 **** -0.24
33152 H 202.94343088902994 180.65530809429478 18.978282692437006 H 0.0 **** 0.06
33153 H 202.41767896393515 182.1333888460079 18.13799114498798 H 0.0 **** 0.06
33154 H 201.51371170127518 180.6152883719423 17.919817234318998 H 0.0 **** 0.06
33155 H 203.13872019933586 180.79231638635713 17.21474690067663 H 0.0 **** 0.06
33156 C 194.26134133509967 63.53758736686001 90.28737910176403 C 0.0 **** -0.24
33157 H 194.0782829716906 64.43715997509065 89.69920148845677 H 0.0 **** 0.06
33158 H 194.9103029268028 63.77934898263385 91.12897182184366 H 0.0 **** 0.06
33159 H 194.74343443446816 62.786094602790854 89.6610125722678 H 0.0 **** 0.06
33160 H 193.31437834856237 63.14689169112526 90.6585409417903 H 0.0 **** 0.06
33161 C 124.47482003425613 215.48758599337003 170.16215071674384 C 0.0 **** -0.24
33162 H 124.42151138513911 214.4034425197894 170.2718835271669 H 0.0 **** 0.06
33163 H 123.84377760242937 215.9592500149266 170.91598866423783 H 0.0 **** 0.06
33164 H 124.12767082444451 215.769130059877 169.16791206099595 H 0.0 **** 0.06
33165 H 125.50620073788922 215.81538529456057 170.29389139621838 H 0.0 **** 0.06
33166 C 159.346300566434 166.83893109966112 137.90940116082675 C 0.0 **** -0.24
33167 H 158.85834622122132 166.7773828457639 138.88194961715965 H 0.0 **** 0.06
33168 H 158.615191962879 167.13190019484824 137.1558751449686 H 0.0 **** 0.06
33169 H 159.76481633749023 165.86587611154533 137.65123515750702 H 0.0 **** 0.06
33170 H 160.14429648644312 167.5794266356154 137.94963779364167 H 0.0 **** 0.06
33171 C 117.90236512122756 177.29368767639028 101.74673156934826 C 0.0 **** -0.24
33172 H 117.51729671794313 176.55345399044347 101.04533114657941 H 0.0 **** 0.06
33173 H 117.218428334693 177.38599296903436 102.58995415459724 H 0.0 **** 0.06
33174 H 117.99357892204635 178.25682958713827 101.24414143146102 H 0.0 **** 0.06
33175 H 118.88211893000907 176.97822017890397 102.10605576345829 H 0.0 **** 0.06
33176 C 166.84844738894418 71.40239455720229 60.30227928009293 C 0.0 **** -0.24
33177 H 167.62572821573735 72.06360445823736 59.91855264779099 H 0.0 **** 0.06
33178 H 166.38020169458133 70.87403038329558 59.47262008301186 H 0.0 **** 0.06
33179 H 166.09784500056628 71.99193611409788 60.828149923651836 H 0.0 **** 0.06
33180 H 167.29186722032443 70.68157910640497 60.989482366146774 H 0.0 **** 0.06
33181 C 46.5508802767703 10.543376968208563 75.9280863402506 C 0.0 **** -0.24
33182 H 47.10856045884256 9.616238084912581 76.05854872559088 H 0.0 **** 0.06
33183 H 45.88450454066607 10.689314857298783 76.7789562882425 H 0.0 **** 0.06
33184 H 45.96409714368369 10.489206871296432 75.01136539911688 H 0.0 **** 0.06
33185 H 47.24759029235143 11.379732119213756 75.86419293635434 H 0.0 **** 0.06
33186 C 209.2288401323265 38.095054547469374 3.207054789807728 C 0.0 **** -0.24
33187 H 208.4369536126167 37.75907648355377 2.537043125485731 H 0.0 **** 0.06
33188 H 210.14693594642745 37.552036793792695 2.984088600736712 H 0.0 **** 0.06
33189 H 208.93463140522906 37.90416310820228 4.239185994261057 H 0.0 **** 0.06
33190 H 209.3931460416268 39.16285639337127 3.0679976212167688 H 0.0 **** 0.06
33191 C 139.76758191295113 11.948925883262405 212.16793804514663 C 0.0 **** -0.24
33192 H 138.681909196258 11.843465323231499 212.16052258888774 H 0.0 **** 0.06
33193 H 140.22185661641652 10.998255664237092 212.44819823673 H 0.0 **** 0.06
33194 H 140.05303623360533 12.715610068964338 212.8876243047132 H 0.0 **** 0.06
33195 H 140.1111320600197 12.236821779293905 211.1744762278939 H 0.0 **** 0.06
33196 C 79.78554739290519 139.039184788047 150.37340899384435 C 0.0 **** -0.24
33197 H 80.33311496622093 138.41792851181623 151.08162966290013 H 0.0 **** 0.06
33198 H 79.94592821705646 138.6632348831825 149.362226606006 H 0.0 **** 0.06
33199 H 80.14243005270663 140.06654907581247 150.440308251872 H 0.0 **** 0.06
33200 H 78.72215065084157 139.00649109591524 150.60875472675707 H 0.0 **** 0.06
33201 C 150.41310212720447 51.038966510465414 84.62537350315131 C 0.0 **** -0.24
33202 H 149.94171429477154 51.959253054783375 84.2802715956094 H 0.0 **** 0.06
33203 H 149.7356702008418 50.200513129725636 84.46097136073672 H 0.0 **** 0.06
33204 H 150.63652294940755 51.121569404458086 85.68945106141587 H 0.0 **** 0.06
33205 H 151.33706067080425 50.874083592701126 84.07245095478766 H 0.0 **** 0.06
33206 C 17.234154025170668 57.95607856891078 194.616198826385 C 0.0 **** -0.24
33207 H 17.795531783381676 57.32734660834042 195.30740955620257 H 0.0 **** 0.06
33208 H 16.504130910926634 57.34780883389361 194.08271376649526 H 0.0 **** 0.06
33209 H 17.92024349843348 58.41137569854938 193.90120238285408 H 0.0 **** 0.06
33210 H 16.718236428219015 58.73859229293751 195.17359227799068 H 0.0 **** 0.06
33211 C 115.23929274485327 127.7127575351834 138.94943102084756 C 0.0 **** -0.24
33212 H 114.20111422144306 127.6321817139973 139.27257191553298 H 0.0 **** 0.06
33213 H 115.74988921095824 126.766624572774 139.13096838689427 H 0.0 **** 0.06
33214 H 115.73365236856976 128.50680089493403 139.51024994364423 H 0.0 **** 0.06
33215 H 115.27183826053214 127.94518495225246 137.88463036575803 H 0.0 **** 0.06
33216 C 198.41443296322143 179.05305488583616 41.101218857675974 C 0.0 **** -0.24
33217 H 199.38472451981 178.91750219147596 41.578538343623904 H 0.0 **** 0.06
33218 H 197.81252478227145 178.15375196215552 41.23926219724359 H 0.0 **** 0.06
33219 H 198.55679920486557 179.23477312747752 40.03551322943008 H 0.0 **** 0.06
33220 H 197.90387981372692 179.90445148573377 41.55059669130122 H 0.0 **** 0.06
33221 C 144.81325397940333 192.76858170806088 18.224121472966203 C 0.0 **** -0.24
33222 H 143.8171158683955 193.20724111289678 18.28282349991362 H 0.0 **** 0.06
33223 H 145.46337503356636 193.24739445123873 18.955799062123248 H 0.0 **** 0.06
33224 H 145.2175606083183 192.91812823190338 17.223790479567 H 0.0 **** 0.06
33225 H 144.7521781595724 191.7012697714418 18.435847957478416 H 0.0 **** 0.06
33226 C 205.39018341002054 10.410644938389538 117.71282283404855 C 0.0 **** -0.24
33227 H 206.07424592662795 11.049953494693142 118.27138902457921 H 0.0 **** 0.06
33228 H 204.48388432970305 10.251798626808522 118.29781768470099 H 0.0 **** 0.06
33229 H 205.86914699514313 9.451717372706995 117.51533120891821 H 0.0 **** 0.06
33230 H 205.13389175757163 10.891246763178614 116.76855506747472 H 0.0 **** 0.06
33231 C 155.06477789101365 60.15066586151312 135.83457361566212 C 0.0 **** -0.24
33232 H 154.4776744758894 60.732801021551666 135.12347208192142 H 0.0 **** 0.06
33233 H 154.72154449184967 59.11586706787938 135.82636161658297 H 0.0 **** 0.06
33234 H 154.94030203533794 60.56682609523756 136.8338281090065 H 0.0 **** 0.06
33235 H 156.11639532714292 60.187547172157736 135.5530054229713 H 0.0 **** 0.06
33236 C 61.04503151906914 61.47495910655732 113.46354537739656 C 0.0 **** -0.24
33237 H 60.32969785134992 60.858569017207344 114.00929913294091 H 0.0 **** 0.06
33238 H 61.92624785326444 60.8809527801194 113.22217349538577 H 0.0 **** 0.06
33239 H 61.33678218808126 62.324744397577206 114.08168424859586 H 0.0 **** 0.06
33240 H 60.585431306908106 61.83572442582829 112.54305139259021 H 0.0 **** 0.06
33241 C 101.97819428538338 16.087866664480373 79.59067505412418 C 0.0 **** -0.24
33242 H 102.50950993265212 16.824795733016742 78.98915335701378 H 0.0 **** 0.06
33243 H 100.96592798793796 15.966994916168971 79.20545681322574 H 0.0 **** 0.06
33244 H 101.93599466266687 16.425750684907314 80.6259825988929 H 0.0 **** 0.06
33245 H 102.50296181073617 15.132493509678483 79.54095223984399 H 0.0 **** 0.06
33246 C 30.860039831848667 211.02793454331731 159.22933603552764 C 0.0 **** -0.24
33247 H 30.867437541474672 210.18443569321647 158.53891290252997 H 0.0 **** 0.06
33248 H 30.911385979022924 210.65847886216164 160.25441175965653 H 0.0 **** 0.06
33249 H 29.94090178729347 211.59935463596727 159.09486487978495 H 0.0 **** 0.06
33250 H 31.718447698896313 211.66825917274028 159.0299233611426 H 0.0 **** 0.06
33251 C 91.36091408028399 134.55474238988086 43.04926829394577 C 0.0 **** -0.24
33252 H 92.04529433725672 134.34659867444964 43.871096729386124 H 0.0 **** 0.06
33253 H 91.83171950602302 135.24654546520736 42.35038496846636 H 0.0 **** 0.06
33254 H 90.44645408937443 134.99877917546797 43.441858901426485 H 0.0 **** 0.06
33255 H 91.12090331266647 133.62492214288073 42.532744053441206 H 0.0 **** 0.06
33256 C 147.85822728279646 43.64979318168241 31.747566489497842 C 0.0 **** -0.24
33257 H 148.27876832435766 44.609497573210646 32.04928136110095 H 0.0 **** 0.06
33258 H 147.84331129633568 43.587144475663536 30.65951052212813 H 0.0 **** 0.06
33259 H 146.84172044912742 43.563567859561715 32.13032512456749 H 0.0 **** 0.06
33260 H 148.4690114438086 42.84190212816581 32.150556429453445 H 0.0 **** 0.06
33261 C 24.499073918793698 149.5623605963819 60.23007793893352 C 0.0 **** -0.24
33262 H 24.712088610658782 150.61430954836578 60.418951633181436 H 0.0 **** 0.06
33263 H 23.742947522127395 149.47880314012673 59.44904005825775 H 0.0 **** 0.06
33264 H 24.130300941823663 149.09729916523355 61.144886394913414 H 0.0 **** 0.06
33265 H 25.411468801834303 149.06026613634623 59.90922617065574 H 0.0 **** 0.06
33266 C 213.70104893139762 8.67243904827626 203.05359632472008 C 0.0 **** -0.24
33267 H 213.99978658517696 8.409772018753642 204.06819130531963 H 0.0 **** 0.06
33268 H 213.88214106699107 9.733605141479757 202.88391046720065 H 0.0 **** 0.06
33269 H 212.64021917436796 8.459354978007696 202.92127646547223 H 0.0 **** 0.06
33270 H 214.28093565229426 8.085703593364116 202.34113788108647 H 0.0 **** 0.06
33271 C 142.387000853318 157.37081129405522 181.3718675360803 C 0.0 **** -0.24
33272 H 141.59375130258888 156.97644509833276 182.00699712251173 H 0.0 **** 0.06
33273 H 142.41429886237984 158.4580521870614 181.458713575374 H 0.0 **** 0.06
33274 H 142.19360816040347 157.09353790697486 180.33519937009106 H 0.0 **** 0.06
33275 H 143.34479087454525 156.95681754804104 181.68654448883433 H 0.0 **** 0.06
33276 C 62.634875858192544 87.49820978166748 49.04070245324874 C 0.0 **** -0.24
33277 H 62.023813497850725 86.71542335216306 49.49023703082037 H 0.0 **** 0.06
33278 H 62.429601511967945 88.44778292802054 49.53392998915845 H 0.0 **** 0.06
33279 H 62.39701252019921 87.58016499656553 47.97966591822363 H 0.0 **** 0.06
33280 H 63.68985172739181 87.24856687635555 49.15771735360977 H 0.0 **** 0.06
33281 C 182.86904990092367 194.5881773503146 73.1589821387913 C 0.0 **** -0.24
33282 H 182.1653147513589 195.1059661086772 73.80902809135883 H 0.0 **** 0.06
33283 H 183.78775452299516 194.38168953844257 73.70939722141576 H 0.0 **** 0.06
33284 H 183.09597000321702 195.2139078099039 72.29567813697518 H 0.0 **** 0.06
33285 H 182.4290032659676 193.64982679858312 72.82089584271087 H 0.0 **** 0.06
33286 C 197.47265893081408 31.54754904378933 163.53843913449282 C 0.0 **** -0.24
33287 H 196.92671209456768 30.813674165577368 162.94509365188972 H 0.0 **** 0.06
33288 H 198.18784688524244 32.06867082542706 162.90232561599288 H 0.0 **** 0.06
33289 H 198.00435496795743 31.03957912932941 164.3432422361934 H 0.0 **** 0.06
33290 H 196.7719944976219 32.26633034662797 163.96270075009298 H 0.0 **** 0.06
33291 C 69.86726218792607 105.77356027446329 202.91574240895937 C 0.0 **** -0.24
33292 H 69.92074607577358 105.38686864652423 201.89812057712973 H 0.0 **** 0.06
33293 H 70.18925913933758 105.00052357668058 203.6145974656953 H 0.0 **** 0.06
33294 H 68.84043543988764 106.06171120265289 203.1410289147694 H 0.0 **** 0.06
33295 H 70.51812804955462 106.64275292486623 203.008935210756 H 0.0 **** 0.06
33296 C 150.14898483146345 175.88396041372306 189.005391797531 C 0.0 **** -0.24
33297 H 149.7520072354156 176.8084570275596 188.5875641836398 H 0.0 **** 0.06
33298 H 149.33959630113077 175.16438164039323 189.13039475681956 H 0.0 **** 0.06
33299 H 150.60543180437742 176.09088503190054 189.97403906182547 H 0.0 **** 0.06
33300 H 150.90062929011282 175.47402990929862 188.33073875550542 H 0.0 **** 0.06
33301 C 153.35214477411995 201.9281673979656 21.057042171656363 C 0.0 **** -0.24
33302 H 153.3750198678283 202.2475296685301 20.01578639922984 H 0.0 **** 0.06
33303 H 152.32834165358332 201.97765139833183 21.42960715012616 H 0.0 **** 0.06
33304 H 153.98708793415744 202.58304624623312 21.652554547452283 H 0.0 **** 0.06
33305 H 153.71537922124145 200.90326632716508 21.13044967934475 H 0.0 **** 0.06
33306 C 8.468942024580201 136.05072711838852 4.8606120653507645 C 0.0 **** -0.24
33307 H 8.983865642939406 136.8897527195241 4.393344654244331 H 0.0 **** 0.06
33308 H 8.901060428345687 135.8611954313962 5.843457714689734 H 0.0 **** 0.06
33309 H 8.580053068665109 135.1629892193809 4.2378842780304 H 0.0 **** 0.06
33310 H 7.410288330649365 136.2882468675021 4.9682358205234465 H 0.0 **** 0.06
33311 C 89.93642430504654 131.452244048882 137.49799629858728 C 0.0 **** -0.24
33312 H 89.50772197068717 131.2697512217281 138.48328549953897 H 0.0 **** 0.06
33313 H 90.70147841937326 132.2255376554499 137.57174145079716 H 0.0 **** 0.06
33314 H 89.15167002169896 131.78128625935386 136.81629101953428 H 0.0 **** 0.06
33315 H 90.38320214391324 130.5330434289384 137.11969362606493 H 0.0 **** 0.06
33316 C 181.6302204743693 48.2834221913925 111.8231420886068 C 0.0 **** -0.24
33317 H 181.16468728130326 48.809191698746076 110.98939008036285 H 0.0 **** 0.06
33318 H 181.40253053742714 48.80364607944398 112.7536895299121 H 0.0 **** 0.06
33319 H 182.71022384664008 48.256116289153 111.67676842871833 H 0.0 **** 0.06
33320 H 181.2438418407454 47.26575295974487 111.87182483350767 H 0.0 **** 0.06
33321 C 124.979680975513 131.14732652786296 7.448692003163558 C 0.0 **** -0.24
33322 H 125.95608410083743 131.17781490770807 6.965939976420259 H 0.0 **** 0.06
33323 H 124.98233264306386 130.38065816841151 8.224687340361811 H 0.0 **** 0.06
33324 H 124.21527952636059 130.91233892001412 6.708979652560657 H 0.0 **** 0.06
33325 H 124.76604265846184 132.1174425158954 7.897582612038974 H 0.0 **** 0.06
33326 C 35.73408140870377 143.28246979153693 125.5515319200503 C 0.0 **** -0.24
33327 H 36.002990513845546 142.42089389898536 126.16336606901918 H 0.0 **** 0.06
33328 H 34.797281005361 143.70611492797985 125.91329971391268 H 0.0 **** 0.06
33329 H 35.61521894122825 142.96699373607578 124.51483586342307 H 0.0 **** 0.06
33330 H 36.52199224357062 144.0324643531173 125.61476005336719 H 0.0 **** 0.06
33331 C 140.35052417337033 210.2716395379179 174.7048822483689 C 0.0 **** -0.24
33332 H 141.003092377523 211.08575930977008 175.01885176535373 H 0.0 **** 0.06
33333 H 140.13161666037485 209.6320951323499 175.56075876619508 H 0.0 **** 0.06
33334 H 140.84580899244258 209.68578979344466 173.93125304560698 H 0.0 **** 0.06
33335 H 139.42122753453435 210.68256732053715 174.31106472495065 H 0.0 **** 0.06
33336 C 177.4129350426744 65.334533214411 170.7166862083718 C 0.0 **** -0.24
33337 H 177.79709429057957 64.37068059924538 171.052477760122 H 0.0 **** 0.06
33338 H 177.7860201672117 66.12198052119498 171.37274900441787 H 0.0 **** 0.06
33339 H 176.32345494130143 65.32184963616398 170.74699084928488 H 0.0 **** 0.06
33340 H 177.74678001356847 65.52341824223889 169.69636267153768 H 0.0 **** 0.06
33341 C 17.69461608692025 39.51810191448949 14.461083726778611 C 0.0 **** -0.24
33342 H 17.615620359609863 40.308432738685624 15.207400680766625 H 0.0 **** 0.06
33343 H 17.10843276482464 39.78648056813722 13.583222623355454 H 0.0 **** 0.06
33344 H 17.316901021012285 38.58451537421841 14.879830264522184 H 0.0 **** 0.06
33345 H 18.73990357444565 39.39085705010959 14.176842675687112 H 0.0 **** 0.06
33346 C 17.228707697690425 142.89143629830278 213.1768578799867 C 0.0 **** -0.24
33347 H 16.34135604259734 143.43777067779172 212.85715970624915 H 0.0 **** 0.06
33348 H 17.908819171943065 143.57313021934954 213.68961801151954 H 0.0 **** 0.06
33349 H 17.727475199245873 142.46605073986484 212.30693362156066 H 0.0 **** 0.06
33350 H 16.936727733180817 142.0908791645178 213.85662630723135 H 0.0 **** 0.06
33351 C 83.68657131523882 80.12640909356061 189.40768499251857 C 0.0 **** -0.24
33352 H 83.06689258833053 79.31996245598104 189.01543477292034 H 0.0 **** 0.06
33353 H 83.17951157584245 80.59642762736287 190.24997124110607 H 0.0 **** 0.06
33354 H 83.85655692343555 80.86697037514197 188.62623760726657 H 0.0 **** 0.06
33355 H 84.64323648722366 79.72101541413998 189.73846114746138 H 0.0 **** 0.06
33356 C 73.4741967626199 203.13962012975895 50.71804536147607 C 0.0 **** -0.24
33357 H 74.30677049750722 203.48137651977288 50.103257040355174 H 0.0 **** 0.06
33358 H 72.79045780006317 203.9696879644069 50.896563042201535 H 0.0 **** 0.06
33359 H 73.85434587722614 202.7694363442768 51.66997169564894 H 0.0 **** 0.06
33360 H 72.94655760142086 202.33860055146533 50.20104567653584 H 0.0 **** 0.06
33361 C 211.51281458843806 38.79222124536892 26.87272395157828 C 0.0 **** -0.24
33362 H 211.45131806625676 39.34003074927972 27.813322202859837 H 0.0 **** 0.06
33363 H 212.50369259386358 38.3467383505793 26.7777138145954 H 0.0 **** 0.06
33364 H 211.34150417536543 39.476392517391446 26.041953501124837 H 0.0 **** 0.06
33365 H 210.7575433556188 38.0065723683968 26.858569805070942 H 0.0 **** 0.06
33366 C 114.37009392506606 2.246968414646517 31.719976331670466 C 0.0 **** -0.24
33367 H 113.82016695327717 2.4815441910806726 32.63150618382171 H 0.0 **** 0.06
33368 H 113.70035787732299 2.3157707806527696 30.863624784530856 H 0.0 **** 0.06
33369 H 114.77230747268656 1.2357613909484826 31.78831203943237 H 0.0 **** 0.06
33370 H 115.18961771297747 2.955879145603461 31.598813276318708 H 0.0 **** 0.06
33371 C 173.97010119247744 16.62944219278893 122.90623984714392 C 0.0 **** -0.24
33372 H 173.58519839672454 15.643099087191189 123.16501243176288 H 0.0 **** 0.06
33373 H 174.35698198703798 17.114988412145905 123.80233150628237 H 0.0 **** 0.06
33374 H 173.16720079533292 17.232665005490958 122.48233616802196 H 0.0 **** 0.06
33375 H 174.77216250462826 16.524868985031603 122.17497570376531 H 0.0 **** 0.06
33376 C 207.88884256088218 48.985032839890835 160.60937345634684 C 0.0 **** -0.24
33377 H 207.6571324956654 49.41575640977436 161.58296206118774 H 0.0 **** 0.06
33378 H 208.44709282351843 49.71025942067621 160.01573701909746 H 0.0 **** 0.06
33379 H 206.96267093434537 48.7297809814026 160.09496726040587 H 0.0 **** 0.06
33380 H 208.49046231171585 48.085742638169506 160.7440803872547 H 0.0 **** 0.06
33381 C 121.26091961014374 112.31372220356302 161.70232754166557 C 0.0 **** -0.24
33382 H 120.30478830592246 112.7788646521022 161.9421286413544 H 0.0 **** 0.06
33383 H 121.4058364011939 112.3176599432975 160.62191615799117 H 0.0 **** 0.06
33384 H 121.26634656049875 111.28699506616216 162.06646494433176 H 0.0 **** 0.06
33385 H 122.06643354154671 112.87306399089358 162.1790299881411 H 0.0 **** 0.06
33386 C 75.34199613197747 50.69597225477432 19.656495897527506 C 0.0 **** -0.24
33387 H 75.34597547382002 49.7012974869578 19.21219038809535 H 0.0 **** 0.06
33388 H 76.21024106983457 51.25444258990723 19.304477750781714 H 0.0 **** 0.06
33389 H 75.38181924379107 50.60899659161669 20.741975735584575 H 0.0 **** 0.06
33390 H 74.4308319369867 51.21941724737218 19.366952661957185 H 0.0 **** 0.06
33391 C 18.058892895551793 149.9984170718401 137.93340060520984 C 0.0 **** -0.24
33392 H 18.53447657591265 149.45537182985527 138.75004016014543 H 0.0 **** 0.06
33393 H 18.439231566863782 151.0198517823007 137.90603685629623 H 0.0 **** 0.06
33394 H 16.979926780727922 150.01478134725045 138.0882859682422 H 0.0 **** 0.06
33395 H 18.282616690211952 149.50153651314662 136.98935902154813 H 0.0 **** 0.06
33396 C 73.82327888861816 188.1220736230128 4.75476707429614 C 0.0 **** -0.24
33397 H 73.34723801259408 187.14951936621608 4.874301236505687 H 0.0 **** 0.06
33398 H 74.8684421477203 187.9826589389084 4.476180523016097 H 0.0 **** 0.06
33399 H 73.76736346225321 188.67174501859452 5.693540706494332 H 0.0 **** 0.06
33400 H 73.3108052812908 188.68325279100446 3.9739451578845717 H 0.0 **** 0.06
33401 C 197.37893736522565 98.1229301193166 93.81030168474211 C 0.0 **** -0.24
33402 H 198.1878105067584 98.26984057603198 94.52615900208627 H 0.0 **** 0.06
33403 H 196.4330013604071 98.03754427433881 94.34471768550338 H 0.0 **** 0.06
33404 H 197.5585180036663 97.20959014103789 93.24201739251458 H 0.0 **** 0.06
33405 H 197.33765809158675 98.9725066430887 93.12951840868925 H 0.0 **** 0.06
33406 C 121.57855106462851 165.5568446723152 0.14959249000599328 C 0.0 **** -0.24
33407 H 120.7813671712908 164.8701862829152 -0.13386689049787748 H 0.0 **** 0.06
33408 H 122.48118018150849 165.31579463939283 -0.4129808087802189 H 0.0 **** 0.06
33409 H 121.77842913242729 165.46108178126855 1.2166643515211533 H 0.0 **** 0.06
33410 H 121.27420910346162 166.57980829006897 -0.07363286191610285 H 0.0 **** 0.06
33411 C 63.32360435286512 165.23231231330004 86.83071305052015 C 0.0 **** -0.24
33412 H 63.15159932905169 165.42242436146643 85.77187321527644 H 0.0 **** 0.06
33413 H 62.48205495500113 165.61254279509427 87.40958136402084 H 0.0 **** 0.06
33414 H 64.23855738080488 165.7355919081117 87.14528063381424 H 0.0 **** 0.06
33415 H 63.42414980677415 164.15966252349264 86.99559231811018 H 0.0 **** 0.06
33416 C 90.7147219054533 176.76783396214927 189.5314673992055 C 0.0 **** -0.24
33417 H 91.38421330152784 176.07270697618293 189.02447145566046 H 0.0 **** 0.06
33418 H 90.3637818802448 176.32147619776623 190.46252164096356 H 0.0 **** 0.06
33419 H 89.86095724816147 176.98415218133596 188.8878941671373 H 0.0 **** 0.06
33420 H 91.24853632879064 177.6920477810113 189.74991669281786 H 0.0 **** 0.06
33421 C 57.93163805898071 169.1186161124932 121.99690692402022 C 0.0 **** -0.24
33422 H 58.45053567500577 170.07558053328677 121.94171183606132 H 0.0 **** 0.06
33423 H 56.91518357099173 169.27736870608146 122.3562953142608 H 0.0 **** 0.06
33424 H 58.461011947148066 168.45808358865628 122.68404098528627 H 0.0 **** 0.06
33425 H 57.90072842501732 168.66469522691904 121.00634114487035 H 0.0 **** 0.06
33426 C 11.350071670557028 194.79157706453742 19.83905545599532 C 0.0 **** -0.24
33427 H 10.445705166690047 194.38112915909005 20.28953286958074 H 0.0 **** 0.06
33428 H 11.282935721008343 195.88023230068146 19.815866804402674 H 0.0 **** 0.06
33429 H 11.453501406482914 194.41251882316107 18.82265825759896 H 0.0 **** 0.06
33430 H 12.216735705280342 194.4925246726014 20.42824324211631 H 0.0 **** 0.06
33431 C 184.4526892588919 61.162969234437455 23.54337988344612 C 0.0 **** -0.24
33432 H 183.94703340473177 60.979043357766955 24.491605898154845 H 0.0 **** 0.06
33433 H 185.27239504298961 60.45392214948386 23.426598896565082 H 0.0 **** 0.06
33434 H 184.84669147280312 62.17888174469884 23.533076871411353 H 0.0 **** 0.06
33435 H 183.7445412232515 61.03845468675772 22.724585274386357 H 0.0 **** 0.06
33436 C 41.76381538556248 118.97525201544954 108.28408440078782 C 0.0 **** -0.24
33437 H 42.0912939557183 119.80285878670276 107.65501925991474 H 0.0 **** 0.06
33438 H 42.57363179074218 118.25161407196521 108.38161730788643 H 0.0 **** 0.06
33439 H 40.89813478462378 118.49373477541405 107.8297195972424 H 0.0 **** 0.06
33440 H 41.494102220581965 119.3533588301488 109.27025283684416 H 0.0 **** 0.06
33441 C 203.7733406351484 40.74185870553802 183.68979930243972 C 0.0 **** -0.24
33442 H 204.46648249502346 41.508280793564936 183.34154982421407 H 0.0 **** 0.06
33443 H 203.8621435241002 40.63757125071622 184.77165156978933 H 0.0 **** 0.06
33444 H 204.01318550825047 39.7922253523095 183.21156811693913 H 0.0 **** 0.06
33445 H 202.75438314739407 41.030672247612245 183.4339272705186 H 0.0 **** 0.06
33446 C 29.0815068912884 184.23384237135105 119.86178257586654 C 0.0 **** -0.24
33447 H 28.385589995961766 183.80094205066297 120.58070964556676 H 0.0 **** 0.06
33448 H 28.62797962276295 185.11258812543372 119.40207715734307 H 0.0 **** 0.06
33449 H 29.312993806207942 183.49849727920486 119.09158874934143 H 0.0 **** 0.06
33450 H 29.998511632326966 184.52398577736756 120.37467266751004 H 0.0 **** 0.06
33451 C 122.61245082448205 78.82809047846415 146.52692711863995 C 0.0 **** -0.24
33452 H 122.35515860675032 78.66508922887213 147.5736904397504 H 0.0 **** 0.06
33453 H 122.45163877830099 79.87616842002721 146.272596101477 H 0.0 **** 0.06
33454 H 121.9843615707896 78.19945528569825 145.89603424839794 H 0.0 **** 0.06
33455 H 123.66067281694471 78.57217681639226 146.3672868461452 H 0.0 **** 0.06
33456 C 25.257580153622058 99.05082513738972 185.59571892644476 C 0.0 **** -0.24
33457 H 25.98360007092066 98.46919658060995 185.02748179155674 H 0.0 **** 0.06
33458 H 25.3587110625308 100.10617174497929 185.34305866244338 H 0.0 **** 0.06
33459 H 25.437237079843243 98.91305504752319 186.6619308787446 H 0.0 **** 0.06
33460 H 24.250180932953924 98.71341633726774 185.35112281931717 H 0.0 **** 0.06
33461 C 204.48671517147667 184.5596062233285 123.28046255120485 C 0.0 **** -0.24
33462 H 204.47758068834062 185.6414546080702 123.14929181042329 H 0.0 **** 0.06
33463 H 204.52655903812018 184.3232039163235 124.34451310399042 H 0.0 **** 0.06
33464 H 205.3602549634835 184.14023892430808 122.78111754014866 H 0.0 **** 0.06
33465 H 203.5811779122782 184.13410812447978 122.84698845620112 H 0.0 **** 0.06
33466 C 206.05759330856267 120.38555346219975 179.80952470753994 C 0.0 **** -0.24
33467 H 206.89017044067333 120.18375747556182 179.13691501005871 H 0.0 **** 0.06
33468 H 205.48054415630943 119.47322327579319 179.9582325835645 H 0.0 **** 0.06
33469 H 205.4177064531708 121.15408860302206 179.37529700731125 H 0.0 **** 0.06
33470 H 206.44147875892656 120.73303712022037 180.76874689611913 H 0.0 **** 0.06
33471 C 53.023432051409955 79.59790065266668 39.13303292077825 C 0.0 **** -0.24
33472 H 52.63402895703065 78.66754176115995 39.54816991518669 H 0.0 **** 0.06
33473 H 54.08516237188469 79.48081558437957 38.9135950765081 H 0.0 **** 0.06
33474 H 52.88767166834947 80.4021172045845 39.855916719741145 H 0.0 **** 0.06
33475 H 52.4868244983647 79.8396510694983 38.216403671204546 H 0.0 **** 0.06
33476 C 79.75646928173406 49.71272843531449 63.31788885791869 C 0.0 **** -0.24
33477 H 79.57796968108774 49.05720354212684 64.17026796607705 H 0.0 **** 0.06
33478 H 80.51242556376646 49.267190776986524 62.67053157843168 H 0.0 **** 0.06
33479 H 80.10677136016149 50.68165385361061 63.672518397750565 H 0.0 **** 0.06
33480 H 78.83003417048864 49.84242729956151 62.75937895839243 H 0.0 **** 0.06
33481 C 143.15030228987223 120.29278293131324 166.6235539811625 C 0.0 **** -0.24
33482 H 144.08306192650684 119.77277809523343 166.84086380614826 H 0.0 **** 0.06
33483 H 143.24488635699117 121.34163618248766 166.90367866474617 H 0.0 **** 0.06
33484 H 142.33969250357808 119.83567781288758 167.19096284588227 H 0.0 **** 0.06
33485 H 142.9342288994958 120.21996142616138 165.55686635865365 H 0.0 **** 0.06
33486 C 128.9765466022626 125.59280451305096 40.577199923926116 C 0.0 **** -0.24
33487 H 129.60210037980744 124.70703572137842 40.69306741958235 H 0.0 **** 0.06
33488 H 129.56941621069143 126.4030213183276 40.152803303112194 H 0.0 **** 0.06
33489 H 128.5931010495657 125.89498100660853 41.55240556016571 H 0.0 **** 0.06
33490 H 128.14330896116104 125.36444043902662 39.91334225579925 H 0.0 **** 0.06
33491 C 194.5987496614776 61.04325999407311 115.45915464646434 C 0.0 **** -0.24
33492 H 195.65860854618393 61.287637176264866 115.52674211049138 H 0.0 **** 0.06
33493 H 194.0085271802672 61.95503910385486 115.55338533386087 H 0.0 **** 0.06
33494 H 194.33378909766256 60.35415472090776 116.26171054907014 H 0.0 **** 0.06
33495 H 194.39455974625434 60.57572610740655 114.49665963044627 H 0.0 **** 0.06
33496 C 136.79694277279106 207.61515974375106 126.80018586748757 C 0.0 **** -0.24
33497 H 137.1645196310506 206.66255246439135 126.41960243428518 H 0.0 **** 0.06
33498 H 137.00678325145662 207.68507941781644 127.86789714089626 H 0.0 **** 0.06
33499 H 135.72126780594584 207.68177660228002 126.63586391662768 H 0.0 **** 0.06
33500 H 137.29520040271115 208.43123049051644 126.27737997814127 H 0.0 **** 0.06
33501 C 32.955043790491644 108.63861994870295 111.56205745454851 C 0.0 **** -0.24
33502 H 32.529395583618324 107.63546082752156 111.53491854176805 H 0.0 **** 0.06
33503 H 32.74027350840679 109.15105712711069 110.6241896576992 H 0.0 **** 0.06
33504 H 34.03425628348754 108.57079280458272 111.69987622464645 H 0.0 **** 0.06
33505 H 32.51772018723162 109.19653086679061 112.39080447934809 H 0.0 **** 0.06
33506 C 92.38390577199317 5.984471343491833 18.679506949796988 C 0.0 **** -0.24
33507 H 92.63118640929275 6.521401912918066 19.594335325528704 H 0.0 **** 0.06
33508 H 93.2881792270498 5.838319853126109 18.087362183557346 H 0.0 **** 0.06
33509 H 91.66122610643009 6.562412634216969 18.102591774708756 H 0.0 **** 0.06
33510 H 91.95447747832526 5.015000218107019 18.931473631464826 H 0.0 **** 0.06
33511 C 164.9509494982076 135.9332898056408 211.90730872056093 C 0.0 **** -0.24
33512 H 166.01651802851842 135.71846057595008 211.82283235416628 H 0.0 **** 0.06
33513 H 164.48428362615763 135.84438187370694 210.92552233579562 H 0.0 **** 0.06
33514 H 164.8131386473131 136.94695041136544 212.28450163383303 H 0.0 **** 0.06
33515 H 164.49073291915872 135.2234697160394 212.59432347256632 H 0.0 **** 0.06
33516 C 210.9143155945639 23.038677016852716 215.57431019158145 C 0.0 **** -0.24
33517 H 211.1333784812079 23.709874537404033 214.7442141324002 H 0.0 **** 0.06
33518 H 211.46872594064382 23.358777779072923 216.45626869388752 H 0.0 **** 0.06
33519 H 211.2092499770378 22.023631975212467 215.30832070062152 H 0.0 **** 0.06
33520 H 209.84590797936602 23.062423775721385 215.78843723941634 H 0.0 **** 0.06
33521 C 40.54991551948996 164.00336239754503 174.88986420373567 C 0.0 **** -0.24
33522 H 40.29687453896858 164.98957437236436 175.27815575385532 H 0.0 **** 0.06
33523 H 39.82780196980269 163.71785441497923 174.12468752091104 H 0.0 **** 0.06
33524 H 40.527601138354356 163.27645583646245 175.70104792910365 H 0.0 **** 0.06
33525 H 41.54926019921635 164.03045020641852 174.4547301903496 H 0.0 **** 0.06
33526 C 31.051641529774386 199.1061141388651 213.83208864478388 C 0.0 **** -0.24
33527 H 31.260071857092115 199.2701146099001 214.88948582008496 H 0.0 **** 0.06
33528 H 31.07561127693546 200.0605755741806 213.3054683167519 H 0.0 **** 0.06
33529 H 30.066178584242337 198.65413948310834 213.7213239249593 H 0.0 **** 0.06
33530 H 31.806290539769577 198.44097572102606 213.41289193024193 H 0.0 **** 0.06
33531 C 188.10094081316413 69.88362615641222 42.78191892835156 C 0.0 **** -0.24
33532 H 187.7057984760001 70.19189656578914 43.74957124962043 H 0.0 **** 0.06
33533 H 188.05943677005092 68.79745516206998 42.7012770021434 H 0.0 **** 0.06
33534 H 189.13541658858514 70.21485127327838 42.68990299319222 H 0.0 **** 0.06
33535 H 187.50394441515238 70.33060958806982 41.986464804253444 H 0.0 **** 0.06
33536 C 47.434307891991295 104.31891610513135 79.00949430276688 C 0.0 **** -0.24
33537 H 48.155036320752515 104.12929806770934 79.80482421293368 H 0.0 **** 0.06
33538 H 46.98563788632498 103.3756779976538 78.69440816816075 H 0.0 **** 0.06
33539 H 47.94038609763055 104.78076207665144 78.1619700975395 H 0.0 **** 0.06
33540 H 46.65618106861609 104.9867640732618 79.37679778253965 H 0.0 **** 0.06
33541 C 88.6557594513364 92.97469584410426 30.366441732321988 C 0.0 **** -0.24
33542 H 88.74794268471919 93.13401429296097 31.44049853222407 H 0.0 **** 0.06
33543 H 88.37542278671128 93.91049772563754 29.88253540251179 H 0.0 **** 0.06
33544 H 87.88964269011626 92.22291394012801 30.175488278081758 H 0.0 **** 0.06
33545 H 89.60955968597328 92.63036481313621 29.965905340986183 H 0.0 **** 0.06
33546 C 142.14357780515155 185.84843523080525 41.45284574049579 C 0.0 **** -0.24
33547 H 141.22266450941396 185.45112163748698 41.881213304156816 H 0.0 **** 0.06
33548 H 142.99863114957435 185.32964956162593 41.88638391197634 H 0.0 **** 0.06
33549 H 142.21461362465237 186.9134237894483 41.672179746715145 H 0.0 **** 0.06
33550 H 142.13546463592098 185.69912048562168 40.37388448393297 H 0.0 **** 0.06
33551 C 199.984002509827 168.99524946869764 29.07214582047567 C 0.0 **** -0.24
33552 H 199.9355215363376 168.15081651061905 29.759457035496723 H 0.0 **** 0.06
33553 H 200.08075998411888 168.62624834866332 28.050996319136942 H 0.0 **** 0.06
33554 H 200.8470476726017 169.6135779722845 29.31782861544093 H 0.0 **** 0.06
33555 H 199.07487048389882 169.58830836052584 29.160430654166248 H 0.0 **** 0.06
33556 C 11.30320609078052 27.215950243735733 37.14416847542873 C 0.0 **** -0.24
33557 H 12.289004313017983 27.22499993506159 36.67882762164592 H 0.0 **** 0.06
33558 H 10.711375565508149 26.402523748305896 36.72403979493809 H 0.0 **** 0.06
33559 H 10.802564923583589 28.16515762446872 36.95427666458184 H 0.0 **** 0.06
33560 H 11.410169218601169 27.06981201606351 38.21907574882751 H 0.0 **** 0.06
33561 C 71.70698512715633 115.76682447667626 168.42533633942966 C 0.0 **** -0.24
33562 H 72.76252172864763 115.86588952912778 168.1728076700718 H 0.0 **** 0.06
33563 H 71.10926969058933 115.82059031407273 167.51592080578607 H 0.0 **** 0.06
33564 H 71.41818595145934 116.57286578281845 169.0993197019872 H 0.0 **** 0.06
33565 H 71.53974174806568 114.80706314414356 168.91431995401064 H 0.0 **** 0.06
33566 C 186.25160059170958 93.10594983375078 179.0385167278564 C 0.0 **** -0.24
33567 H 186.3690479591824 93.36070732488763 180.09209675984943 H 0.0 **** 0.06
33568 H 187.23344654873853 93.01718676064105 178.57493744854452 H 0.0 **** 0.06
33569 H 185.68127970658088 93.8883204370252 178.5376959362739 H 0.0 **** 0.06
33570 H 185.72060272985982 92.1575477225634 178.95176502902115 H 0.0 **** 0.06
33571 C 12.737744154776578 55.301114787615234 31.456341565879868 C 0.0 **** -0.24
33572 H 11.942899091431855 56.0450904691202 31.510375341315566 H 0.0 **** 0.06
33573 H 12.551556377576844 54.517616440701005 32.19117052254755 H 0.0 **** 0.06
33574 H 13.695783036244165 55.777856126201414 31.666373357570208 H 0.0 **** 0.06
33575 H 12.759702507433929 54.86553684156256 30.4579324302226 H 0.0 **** 0.06
33576 C 116.9959581975644 102.62853464478731 132.81844958818863 C 0.0 **** -0.24
33577 H 118.07683809356955 102.52356442368524 132.72542250837364 H 0.0 **** 0.06
33578 H 116.74578369072215 103.67748917921223 132.98033922473923 H 0.0 **** 0.06
33579 H 116.6455466719871 102.03589333180825 133.66233947476576 H 0.0 **** 0.06
33580 H 116.5173302713777 102.27762713309825 131.9039549899154 H 0.0 **** 0.06
33581 C 17.451165821910465 158.45035586747775 194.42685803746107 C 0.0 **** -0.24
33582 H 18.408698076859253 158.96811143190362 194.36689721511996 H 0.0 **** 0.06
33583 H 17.539742357848198 157.46766565014906 193.96127527592677 H 0.0 **** 0.06
33584 H 16.690851406814588 159.0322853755266 193.90499005525362 H 0.0 **** 0.06
33585 H 17.165335606403033 158.3335637458115 195.47182876017663 H 0.0 **** 0.06
33586 C 70.0079156352644 162.1533582881399 164.0597450326622 C 0.0 **** -0.24
33587 H 70.40439138285433 161.178163179423 164.34476194570658 H 0.0 **** 0.06
33588 H 70.76287826677566 162.69883996700437 163.4921436526299 H 0.0 **** 0.06
33589 H 69.74930757137071 162.71664920440793 164.95601694398036 H 0.0 **** 0.06
33590 H 69.11828789089003 162.01798242228875 163.44534371947222 H 0.0 **** 0.06
33591 C 10.068444480942105 215.34171518885725 93.78125041286829 C 0.0 **** -0.24
33592 H 9.826065731092399 216.1749304312255 94.43959227654334 H 0.0 **** 0.06
33593 H 9.161624053835396 214.7808343176921 93.55616489789871 H 0.0 **** 0.06
33594 H 10.788867519751136 214.68787339418247 94.27258704536122 H 0.0 **** 0.06
33595 H 10.49902402176798 215.72436021042978 92.85545173227392 H 0.0 **** 0.06
33596 C 55.96469816953574 164.2376778685051 108.95618525038698 C 0.0 **** -0.24
33597 H 56.808049445946 163.7873979491838 108.43235726301641 H 0.0 **** 0.06
33598 H 55.09628104625614 163.5823160767975 108.87620530581087 H 0.0 **** 0.06
33599 H 55.73347078866689 165.20402638118736 108.50783093662106 H 0.0 **** 0.06
33600 H 56.22095428572263 164.37530101204237 110.0058555706981 H 0.0 **** 0.06
33601 C 75.26104844495728 36.01273345593688 43.59757348918055 C 0.0 **** -0.24
33602 H 76.25167534222993 35.95686825387969 44.04783957828823 H 0.0 **** 0.06
33603 H 75.33321621494161 36.48383088286778 42.61720408597972 H 0.0 **** 0.06
33604 H 74.6045679156706 36.60346977897444 44.237300045092866 H 0.0 **** 0.06
33605 H 74.85443853030137 35.00738613936437 43.4895397877425 H 0.0 **** 0.06
33606 C 69.70807167401966 10.157437644567068 22.21440788171651 C 0.0 **** -0.24
33607 H 69.15319251887729 9.98917477973302 23.13811286207428 H 0.0 **** 0.06
33608 H 69.07931224780285 9.89779567306283 21.361456649750096 H 0.0 **** 0.06
33609 H 70.60208049858153 9.535647742404706 22.209545940281316 H 0.0 **** 0.06
33610 H 69.99401569945735 11.207433467245323 22.149086136114136 H 0.0 **** 0.06
33611 C 6.33131940980239 160.59596835113882 80.51163687472071 C 0.0 **** -0.24
33612 H 7.1821223825438665 161.1840830708752 80.1681656122643 H 0.0 **** 0.06
33613 H 5.466544044265646 160.80647778075257 79.88182857385259 H 0.0 **** 0.06
33614 H 6.102188978833951 160.85751130931692 81.54439611725142 H 0.0 **** 0.06
33615 H 6.575110917096197 159.5344921438255 80.45048027646676 H 0.0 **** 0.06
33616 C 46.1200911142148 159.1768621777615 26.069737202644774 C 0.0 **** -0.24
33617 H 45.144821004411185 158.7551894477195 26.31630866564865 H 0.0 **** 0.06
33618 H 46.605558276312166 158.5537776237879 25.31820714996263 H 0.0 **** 0.06
33619 H 46.73712727429714 159.21271888649488 26.96742022356102 H 0.0 **** 0.06
33620 H 45.99011360922168 160.18513129914254 25.677277836670612 H 0.0 **** 0.06
33621 C 61.95298114347429 80.90445231339756 64.68069744263329 C 0.0 **** -0.24
33622 H 62.71866511917784 80.15299454827989 64.87233618140817 H 0.0 **** 0.06
33623 H 60.96658774316461 80.45375789804085 64.79076443273925 H 0.0 **** 0.06
33624 H 62.066812139143906 81.28854883093162 63.66660202333918 H 0.0 **** 0.06
33625 H 62.06107517743385 81.72323067359692 65.39309398851435 H 0.0 **** 0.06
33626 C 138.5060675865658 93.95817179787817 213.63305317086852 C 0.0 **** -0.24
33627 H 137.62061041583263 93.93051744639847 214.26897375616585 H 0.0 **** 0.06
33628 H 139.22232409664582 94.67174029522063 214.0400159987509 H 0.0 **** 0.06
33629 H 138.21964741811888 94.26363769348602 212.6264667522342 H 0.0 **** 0.06
33630 H 138.95802262821098 92.96716004962026 213.5974093223474 H 0.0 **** 0.06
33631 C 70.29415231938567 141.45924719869504 115.67866703841366 C 0.0 **** -0.24
33632 H 71.19756681190692 141.989365679029 115.97978459681849 H 0.0 **** 0.06
33633 H 69.43434320949497 141.88376303754313 116.19685207492046 H 0.0 **** 0.06
33634 H 70.39002383934023 140.40355424211936 115.93506164062063 H 0.0 **** 0.06
33635 H 70.15521121731275 141.56035629647278 114.6021269958116 H 0.0 **** 0.06
33636 C 55.073853349209855 89.4277679279345 212.5235756415961 C 0.0 **** -0.24
33637 H 55.42846003335836 90.29542950330648 213.08011821010655 H 0.0 **** 0.06
33638 H 55.84662797987923 88.65850482781389 212.51912544095927 H 0.0 **** 0.06
33639 H 54.846360748591366 89.72227378889352 211.4983948894508 H 0.0 **** 0.06
33640 H 54.172973683970056 89.0362665669673 212.99688702216554 H 0.0 **** 0.06
33641 C 134.32786371887323 112.73719804579888 27.202394622714436 C 0.0 **** -0.24
33642 H 134.67591481431407 113.02492022689874 28.194159467964113 H 0.0 **** 0.06
33643 H 134.01775431922522 113.62735561123814 26.654798228628252 H 0.0 **** 0.06
33644 H 133.4816994451187 112.05663400140604 27.297435358796704 H 0.0 **** 0.06
33645 H 135.134977549523 112.24065940490065 26.66426566973108 H 0.0 **** 0.06
33646 C 103.39514364967339 38.46467138505602 114.28343259154282 C 0.0 **** -0.24
33647 H 102.45302924268894 38.79892676016442 114.71744632146901 H 0.0 **** 0.06
33648 H 103.96873202322611 39.3298556713587 113.94954835894724 H 0.0 **** 0.06
33649 H 103.19357211844378 37.811791259873814 113.43360813128304 H 0.0 **** 0.06
33650 H 103.96692673110412 37.91722934649408 115.03430241939891 H 0.0 **** 0.06
33651 C 191.74834483024685 5.244310898076719 92.20639317319093 C 0.0 **** -0.24
33652 H 191.73366298634664 4.224200697745964 91.82438173779862 H 0.0 **** 0.06
33653 H 192.75205131743334 5.488123820343979 92.55416131188208 H 0.0 **** 0.06
33654 H 191.04559828660823 5.33187130367606 93.03478474817102 H 0.0 **** 0.06
33655 H 191.4610152892227 5.933839771821511 91.41172794336562 H 0.0 **** 0.06
33656 C 34.546967411795094 46.98494434476805 51.83128886431524 C 0.0 **** -0.24
33657 H 35.349437504978255 46.25185591419017 51.91315606632054 H 0.0 **** 0.06
33658 H 33.85957431386032 46.86470031429461 52.66940476370104 H 0.0 **** 0.06
33659 H 34.00971200671529 46.831820937284334 50.89564791903655 H 0.0 **** 0.06
33660 H 34.969545509709974 47.98893337083851 51.848606554650644 H 0.0 **** 0.06
33661 C 2.2630440419116837 125.95781089047883 175.222935324559 C 0.0 **** -0.24
33662 H 1.3363118634057685 125.80864110083759 175.7769894546974 H 0.0 **** 0.06
33663 H 2.4749693790094227 127.0253766893738 175.15224530636561 H 0.0 **** 0.06
33664 H 2.1591590943852736 125.54052254449938 174.2217063405488 H 0.0 **** 0.06
33665 H 3.080591479614583 125.45765588015506 175.7427451938757 H 0.0 **** 0.06
33666 C 209.86455925214267 49.33916616202242 8.827708206233439 C 0.0 **** -0.24
33667 H 209.54434131523823 50.30195138002699 8.428444825545355 H 0.0 **** 0.06
33668 H 210.00290759522835 48.63386527085078 8.007715193836376 H 0.0 **** 0.06
33669 H 209.10472755591184 48.95847710438434 9.510514751368618 H 0.0 **** 0.06
33670 H 210.8053978881903 49.4638545365616 9.363924216225627 H 0.0 **** 0.06
33671 C 34.319369759971536 209.83184502602444 31.07275783080074 C 0.0 **** -0.24
33672 H 34.61881726362742 210.56205974018255 30.321786606953395 H 0.0 **** 0.06
33673 H 34.76152236835517 210.0977919668538 32.03335995819275 H 0.0 **** 0.06
33674 H 34.66577070081779 208.84196923920237 30.774580932633086 H 0.0 **** 0.06
33675 H 33.233397683342304 209.82527413831986 31.160408222857285 H 0.0 **** 0.06
33676 C 71.53281680165333 69.16912257705434 209.97566656412846 C 0.0 **** -0.24
33677 H 72.06275116145105 69.40998889498843 209.05483047364282 H 0.0 **** 0.06
33678 H 71.2242488938229 68.12286873303202 209.95328543178292 H 0.0 **** 0.06
33679 H 70.65306438303452 69.80636627344262 210.0658956692409 H 0.0 **** 0.06
33680 H 72.1913827474861 69.33588082963831 210.82843600983702 H 0.0 **** 0.06
33681 C 168.23975997725205 144.99433757212557 3.7752456912119214 C 0.0 **** -0.24
33682 H 167.8234148234027 144.44288358569565 4.618283858391038 H 0.0 **** 0.06
33683 H 169.31871810001917 144.83913512082296 3.7375929168379898 H 0.0 **** 0.06
33684 H 168.02828375932953 146.0564400823307 3.896613700828233 H 0.0 **** 0.06
33685 H 167.78908482957905 144.63698281056287 2.8495618275106978 H 0.0 **** 0.06
33686 C 175.48241828584057 56.87051216201935 113.2720284712499 C 0.0 **** -0.24
33687 H 175.1616817415577 56.06326510120144 112.61283623468113 H 0.0 **** 0.06
33688 H 175.88190614111096 56.4487804468951 114.19462586969702 H 0.0 **** 0.06
33689 H 174.63052261731278 57.5099748429127 113.50248536604794 H 0.0 **** 0.06
33690 H 176.25515200220934 57.45851550854718 112.77560846260344 H 0.0 **** 0.06
33691 C 69.85232139028734 113.45624819409365 188.98649120690482 C 0.0 **** -0.24
33692 H 70.32427685376426 112.51109472695562 188.71741852764757 H 0.0 **** 0.06
33693 H 69.93774943845172 113.61159037473855 190.06191344481016 H 0.0 **** 0.06
33694 H 68.79863760877451 113.42845145237432 188.7053666803181 H 0.0 **** 0.06
33695 H 70.3469170224772 114.27223644774524 188.46058014099702 H 0.0 **** 0.06
33696 C 38.028158604122325 34.094375197111844 206.27325047560822 C 0.0 **** -0.24
33697 H 38.1755630969175 33.087763802035965 206.66597247715117 H 0.0 **** 0.06
33698 H 38.00053746855231 34.80572853236788 207.09899780448563 H 0.0 **** 0.06
33699 H 37.08622134213549 34.13472716549836 205.72656313931378 H 0.0 **** 0.06
33700 H 38.849430056518315 34.34637824401341 205.60235942466733 H 0.0 **** 0.06
33701 C 202.833651537887 107.72178743049658 84.74111452986273 C 0.0 **** -0.24
33702 H 202.3378223511674 108.63701790133784 84.42002153097155 H 0.0 **** 0.06
33703 H 203.155754730035 107.15711876234771 83.86580602611775 H 0.0 **** 0.06
33704 H 202.1402071644257 107.11964719636369 85.32804908591919 H 0.0 **** 0.06
33705 H 203.70172647327377 107.97368984696736 85.35030433288517 H 0.0 **** 0.06
33706 C 150.04991579093706 134.5500083708423 14.295670872360063 C 0.0 **** -0.24
33707 H 150.52360524158888 133.63355892313945 14.648071009489286 H 0.0 **** 0.06
33708 H 149.32958606433453 134.89460711035372 15.037572435453782 H 0.0 **** 0.06
33709 H 149.5368597492668 134.35447677685625 13.354444535053531 H 0.0 **** 0.06
33710 H 150.8112417629518 135.31565837943924 14.143181587255114 H 0.0 **** 0.06
33711 C 38.97732368928081 7.456668891275967 177.76195231034157 C 0.0 **** -0.24
33712 H 39.333460345649314 6.8692614675280765 176.91509083800742 H 0.0 **** 0.06
33713 H 38.487414480642315 8.35947503863872 177.39795896553844 H 0.0 **** 0.06
33714 H 39.821694415019294 7.729777859867625 178.39485728404134 H 0.0 **** 0.06
33715 H 38.26688744332566 6.864891629532167 178.34043495858322 H 0.0 **** 0.06
33716 C 191.97523337083405 145.2966782533017 20.76049444931226 C 0.0 **** -0.24
33717 H 192.1021887680895 144.3474656556242 20.240483970063167 H 0.0 **** 0.06
33718 H 190.9695348103725 145.6758631415429 20.58366872961929 H 0.0 **** 0.06
33719 H 192.70578535291196 146.01480708212893 20.38802173329853 H 0.0 **** 0.06
33720 H 192.12580404917554 145.14799583741365 21.82978961335104 H 0.0 **** 0.06
33721 C 157.5751798257159 188.3683577714778 39.512718867484494 C 0.0 **** -0.24
33722 H 157.51758152852273 189.4376293768376 39.71284828363987 H 0.0 **** 0.06
33723 H 158.16913392267747 188.19906182659588 38.61431218982975 H 0.0 **** 0.06
33724 H 156.57028974137705 187.97155796234338 39.36412550490026 H 0.0 **** 0.06
33725 H 158.04290574183375 187.8658722251091 40.35865672504616 H 0.0 **** 0.06
33726 C 70.73027239298062 203.22133843616095 72.38157803473251 C 0.0 **** -0.24
33727 H 71.43481970179238 202.41877631619315 72.16168196264306 H 0.0 **** 0.06
33728 H 69.88721537857873 203.16286878539512 71.69407000894671 H 0.0 **** 0.06
33729 H 71.22855506391062 204.18408321686823 72.26550472696039 H 0.0 **** 0.06
33730 H 70.37253337485754 203.11918888283984 73.40587554608572 H 0.0 **** 0.06
33731 C 134.9757390215363 156.3362106709842 76.2508122959275 C 0.0 **** -0.24
33732 H 134.71843364162459 155.53196741967116 76.94100639364108 H 0.0 **** 0.06
33733 H 134.23175862466303 156.38270059257667 75.4556582290107 H 0.0 **** 0.06
33734 H 135.95796832662012 156.14487175446055 75.81893251569444 H 0.0 **** 0.06
33735 H 134.99247438370935 157.28396798712868 76.78933447862478 H 0.0 **** 0.06
33736 C 127.98845766556018 18.306697128420183 2.298454859875733 C 0.0 **** -0.24
33737 H 127.07423644359626 18.377349911354486 1.709526281682706 H 0.0 **** 0.06
33738 H 128.78827532846987 17.89790184199626 1.679727712659428 H 0.0 **** 0.06
33739 H 127.81978009391041 17.651524570318315 3.1543117217659358 H 0.0 **** 0.06
33740 H 128.2720194724721 19.297847685021907 2.65054347031311 H 0.0 **** 0.06
33741 C 202.6216327628817 147.58751132455694 62.76561234830859 C 0.0 **** -0.24
33742 H 203.6681382809282 147.8888334621892 62.76673955310115 H 0.0 **** 0.06
33743 H 202.55329341424257 146.51115095160316 62.92264487319149 H 0.0 **** 0.06
33744 H 202.17086865383 147.84520386722 61.80745661955565 H 0.0 **** 0.06
33745 H 202.09386526871998 148.1058472068836 63.56654963185535 H 0.0 **** 0.06
33746 C 78.5523107784315 130.29197329080193 204.93486592548356 C 0.0 **** -0.24
33747 H 78.63398489682133 131.36600483170633 205.0975303038205 H 0.0 **** 0.06
33748 H 79.54994994316563 129.85606386365157 204.87994590537116 H 0.0 **** 0.06
33749 H 78.02115218360088 130.1052054274311 204.0006526322751 H 0.0 **** 0.06
33750 H 78.00280889056428 129.84019147778736 205.7612871383406 H 0.0 **** 0.06
33751 C 103.03354284395142 135.18029552755428 198.98236566977897 C 0.0 **** -0.24
33752 H 103.01640334201711 136.2624692359015 199.11375611272345 H 0.0 **** 0.06
33753 H 103.71354623074195 134.9248183251425 198.16987079293745 H 0.0 **** 0.06
33754 H 102.03028334592226 134.82838860250905 198.74168115494803 H 0.0 **** 0.06
33755 H 103.37311237968866 134.70706072383922 199.90320576035055 H 0.0 **** 0.06
33756 C 74.86567714730039 166.29044891586625 77.51915300415267 C 0.0 **** -0.24
33757 H 74.5487078410054 167.30642194144076 77.75261047582738 H 0.0 **** 0.06
33758 H 74.0099858295484 165.61795228249406 77.58760591613672 H 0.0 **** 0.06
33759 H 75.63235892160522 165.97702078814763 78.22807613889158 H 0.0 **** 0.06
33760 H 75.27219160925212 166.25974655117002 76.50778536084256 H 0.0 **** 0.06
33761 C 66.71309650394915 158.29929547147452 114.52325559603263 C 0.0 **** -0.24
33762 H 67.71362482523367 157.88281952558646 114.64223463200874 H 0.0 **** 0.06
33763 H 65.97971556180174 157.6073347947842 114.93862046048339 H 0.0 **** 0.06
33764 H 66.50788336913277 158.45389218634625 113.46377196295667 H 0.0 **** 0.06
33765 H 66.65208817853527 159.25277299639518 115.04850195814849 H 0.0 **** 0.06
33766 C 173.2396950653491 115.65497562091245 131.23322291068104 C 0.0 **** -0.24
33767 H 173.37661809304288 114.82690724944517 130.53802798319725 H 0.0 **** 0.06
33768 H 174.20815678421826 116.10135016192199 131.4610996794085 H 0.0 **** 0.06
33769 H 172.783770443528 115.28661164513694 132.15234741879158 H 0.0 **** 0.06
33770 H 172.59068915603987 116.40508013815351 130.78052688533444 H 0.0 **** 0.06
33771 C 114.35386477484718 95.23329780678739 111.39326983383192 C 0.0 **** -0.24
33772 H 115.03982270694263 95.63156101775775 112.1421952638327 H 0.0 **** 0.06
33773 H 114.5683539417866 95.68847225784299 110.42592720205822 H 0.0 **** 0.06
33774 H 113.32817835584916 95.46113401990999 111.68329770453091 H 0.0 **** 0.06
33775 H 114.48106763179811 94.15331246957442 111.32352580494249 H 0.0 **** 0.06
33776 C 125.19277931209716 197.07253476527328 142.49104873006002 C 0.0 **** -0.24
33777 H 125.2466078307235 196.58730096982492 141.5170714346403 H 0.0 **** 0.06
33778 H 124.19365251026177 196.94089462082275 142.9076728541737 H 0.0 **** 0.06
33779 H 125.40375786277737 198.13517426155664 142.3794267964206 H 0.0 **** 0.06
33780 H 125.92762487231998 196.6243989624813 143.1603487025127 H 0.0 **** 0.06
33781 C 75.58257552990648 159.00819437860042 92.80230758902972 C 0.0 **** -0.24
33782 H 76.3367305697102 159.5929551930343 92.27527902390001 H 0.0 **** 0.06
33783 H 75.96735322827124 158.71443660745973 93.77907196016172 H 0.0 **** 0.06
33784 H 75.3442523885692 158.11637351909474 92.2221629675655 H 0.0 **** 0.06
33785 H 74.68236450680769 159.60896338085203 92.9310315285248 H 0.0 **** 0.06
33786 C 146.7773604423948 16.027269601364026 121.06839212210632 C 0.0 **** -0.24
33787 H 146.3801733829788 15.235098823846897 120.43395297553558 H 0.0 **** 0.06
33788 H 147.66436536720516 16.456580916733856 120.60054575191059 H 0.0 **** 0.06
33789 H 147.04285995361363 15.61401248497782 122.04093604666257 H 0.0 **** 0.06
33790 H 146.0224589467383 16.80298064881731 121.1959743921273 H 0.0 **** 0.06
33791 C 18.46314777431644 66.24520690634395 189.05041966311896 C 0.0 **** -0.24
33792 H 18.399677253326217 65.43314149981377 189.77388381869866 H 0.0 **** 0.06
33793 H 17.768121437348157 66.0582107590571 188.23165414501995 H 0.0 **** 0.06
33794 H 19.47905905528205 66.30375632288005 188.6594959167634 H 0.0 **** 0.06
33795 H 18.2065554624902 67.18593550872099 189.53717135818536 H 0.0 **** 0.06
33796 C 153.8231997672272 117.67099639642414 103.87437910612255 C 0.0 **** -0.24
33797 H 154.88605878573696 117.43852240339201 103.92673040084946 H 0.0 **** 0.06
33798 H 153.68821910511446 118.75299474384293 103.84874789405194 H 0.0 **** 0.06
33799 H 153.3183369130221 117.26273039663828 104.74914449532434 H 0.0 **** 0.06
33800 H 153.39903899140813 117.23114776127359 102.97125011940801 H 0.0 **** 0.06
33801 C 121.73151769651103 202.4168934926085 153.7575179619078 C 0.0 **** -0.24
33802 H 121.52671958443217 203.48719938147428 153.7388318744588 H 0.0 **** 0.06
33803 H 121.38334040127852 201.96367924136342 152.82922783782902 H 0.0 **** 0.06
33804 H 121.2117281971377 201.96332674898343 154.60111040660587 H 0.0 **** 0.06
33805 H 122.80491770058539 202.25519397549857 153.8614162365854 H 0.0 **** 0.06
33806 C 167.57328742199167 135.05098311968544 199.97296894478188 C 0.0 **** -0.24
33807 H 168.52022804837654 134.53753630428412 199.80633775230174 H 0.0 **** 0.06
33808 H 167.52003189021295 135.3884979961798 201.00756484504763 H 0.0 **** 0.06
33809 H 166.74938422223448 134.36617577133927 199.7709205392128 H 0.0 **** 0.06
33810 H 167.50339101199057 135.91016749184394 199.30544976700168 H 0.0 **** 0.06
33811 C 96.39087568257406 114.8451677416388 11.212880164024114 C 0.0 **** -0.24
33812 H 96.80872138023693 115.20424549849413 10.271926239489389 H 0.0 **** 0.06
33813 H 96.46238923797569 113.75853325705855 11.249872469279083 H 0.0 **** 0.06
33814 H 95.34487637078712 115.14356685753116 11.28233188799966 H 0.0 **** 0.06
33815 H 96.94683803294231 115.27547718437957 12.045337232341197 H 0.0 **** 0.06
33816 C 190.6617662229123 19.145568886396376 131.52933690046603 C 0.0 **** -0.24
33817 H 190.0605452476271 18.337575099505784 131.944462774471 H 0.0 **** 0.06
33818 H 190.16113893217667 20.098520720684903 131.70428339263083 H 0.0 **** 0.06
33819 H 190.78675124322265 18.991425695353726 130.45783340172153 H 0.0 **** 0.06
33820 H 191.63940510902947 19.154797644843086 132.0119497748089 H 0.0 **** 0.06
33821 C 95.10729082353278 173.2974462448399 158.2659833027488 C 0.0 **** -0.24
33822 H 94.25441599881434 172.6202548463043 158.22352774469232 H 0.0 **** 0.06
33823 H 95.500717361485 173.32285936906922 159.28298964325663 H 0.0 **** 0.06
33824 H 94.79102231924223 174.2990286228093 157.97337584894177 H 0.0 **** 0.06
33825 H 95.8830436687209 172.94796570151473 157.58498550345678 H 0.0 **** 0.06
33826 C 152.6281975678438 85.52475722843474 113.77113261674101 C 0.0 **** -0.24
33827 H 153.4759526653864 86.2032569969029 113.86189318988927 H 0.0 **** 0.06
33828 H 151.9660375537132 85.65381897875238 114.62783112434421 H 0.0 **** 0.06
33829 H 152.98784500484862 84.49633034113248 113.74175590368863 H 0.0 **** 0.06
33830 H 152.08355175726933 85.7448694572451 112.85332725968478 H 0.0 **** 0.06
33831 C 128.3427005228133 150.3067227607683 12.80313759614451 C 0.0 **** -0.24
33832 H 128.7144367530011 150.3990963242673 11.782637504401137 H 0.0 **** 0.06
33833 H 129.17242656185977 150.40600047485037 13.502139564655238 H 0.0 **** 0.06
33834 H 127.87179228001828 149.33214533840714 12.93164211274582 H 0.0 **** 0.06
33835 H 127.61014583207863 151.09096974363865 12.994630248177145 H 0.0 **** 0.06
33836 C 24.79684707112051 45.60509491371022 181.53865442385802 C 0.0 **** -0.24
33837 H 25.48529381102037 46.379621722409496 181.87746772759058 H 0.0 **** 0.06
33838 H 24.830915121126708 44.762080478610415 182.22844001298935 H 0.0 **** 0.06
33839 H 25.087506520957305 45.271406014376566 180.54227600789596 H 0.0 **** 0.06
33840 H 23.784074989840974 46.00853014281694 181.5059299942912 H 0.0 **** 0.06
33841 C 190.17732441407423 177.37676134905655 118.49986124296531 C 0.0 **** -0.24
33842 H 190.86284438898514 176.8668381610828 117.82378297453961 H 0.0 **** 0.06
33843 H 189.15202375743118 177.2177547964555 118.16592469916098 H 0.0 **** 0.06
33844 H 190.39783953935014 178.44457678045342 118.50276530609703 H 0.0 **** 0.06
33845 H 190.29763861053826 176.97854602205558 119.50764355768159 H 0.0 **** 0.06
33846 C 194.58322705501482 149.5936712534804 95.3257993901279 C 0.0 **** -0.24
33847 H 194.55091519892028 149.58618630978413 96.41521118238556 H 0.0 **** 0.06
33848 H 193.5700164462619 149.68057265077147 94.93334359994257 H 0.0 **** 0.06
33849 H 195.03418862051745 148.66785488595173 94.96965216797655 H 0.0 **** 0.06
33850 H 195.17826155439937 150.44174112929397 94.98671891342578 H 0.0 **** 0.06
33851 C 42.073598010419886 78.41833106028992 3.873272886368909 C 0.0 **** -0.24
33852 H 42.763222413627915 78.68967141132953 4.671744996334127 H 0.0 **** 0.06
33853 H 41.508140910910356 79.29894115744406 3.567460406534906 H 0.0 **** 0.06
33854 H 41.386203453242246 77.65171343556955 4.231471551875472 H 0.0 **** 0.06
33855 H 42.63520737519542 78.03296070355441 3.0230319060829345 H 0.0 **** 0.06
33856 C 190.70754303995324 215.55553691286946 166.3699051394033 C 0.0 **** -0.24
33857 H 190.04844490656438 215.40284832614836 167.22505951034688 H 0.0 **** 0.06
33858 H 191.55132915005842 214.86889645342478 166.43538804047472 H 0.0 **** 0.06
33859 H 191.07392356825687 216.58242865684437 166.37269839144997 H 0.0 **** 0.06
33860 H 190.15638242047692 215.3675506134586 165.44888546131415 H 0.0 **** 0.06
33861 C 207.80785634039552 112.93955128286073 59.84928877606953 C 0.0 **** -0.24
33862 H 208.40341806812216 113.84339426116777 59.72567560761304 H 0.0 **** 0.06
33863 H 208.39227268000874 112.18874337773256 60.381030411249185 H 0.0 **** 0.06
33864 H 207.52558017016577 112.55316114442478 58.86937552479539 H 0.0 **** 0.06
33865 H 206.90815562439428 113.17192070472127 60.41906523229204 H 0.0 **** 0.06
33866 C 121.05204404290488 143.63260836499717 54.67498939807322 C 0.0 **** -0.24
33867 H 120.99563621660009 143.75938127182565 55.75613921400563 H 0.0 **** 0.06
33868 H 120.944247496957 144.60162231386846 54.188895798267595 H 0.0 **** 0.06
33869 H 120.2528184476533 142.96913789526405 54.34588682117439 H 0.0 **** 0.06
33870 H 122.01669490134192 143.19853449208182 54.41022771800948 H 0.0 **** 0.06
33871 C 196.81579330775548 195.6056760197974 17.26519985106583 C 0.0 **** -0.24
33872 H 197.87877596939816 195.36572581390845 17.233045475727465 H 0.0 **** 0.06
33873 H 196.23631891712034 194.7180146836003 17.01226327239482 H 0.0 **** 0.06
33874 H 196.60066575619717 196.3969029840224 16.546596918561562 H 0.0 **** 0.06
33875 H 196.54956861394308 195.94106775080803 18.267059081992116 H 0.0 **** 0.06
33876 C 2.740860077795844 156.35991594617354 66.31259555458156 C 0.0 **** -0.24
33877 H 1.9009373491435895 156.8130889164937 65.78662864029302 H 0.0 **** 0.06
33878 H 2.983996925324675 155.402478987863 65.85189165836269 H 0.0 **** 0.06
33879 H 2.4717179040027304 156.2026082082611 67.35813605615539 H 0.0 **** 0.06
33880 H 3.6046005098662874 157.02163254618745 66.25577365996864 H 0.0 **** 0.06
33881 C 17.091600563007376 209.71698045707902 206.89876475303768 C 0.0 **** -0.24
33882 H 17.65576741986797 210.00506858496672 207.78674851050337 H 0.0 **** 0.06
33883 H 17.197473289082666 208.6439084960523 206.73387175999105 H 0.0 **** 0.06
33884 H 17.475443434563715 210.25722149310985 206.0340021317995 H 0.0 **** 0.06
33885 H 16.038588498563513 209.96071062801337 207.04223023583233 H 0.0 **** 0.06
33886 C 205.1443357498921 119.80555693786862 144.47755606426398 C 0.0 **** -0.24
33887 H 205.6729403019677 120.0453677980964 143.55525291097604 H 0.0 **** 0.06
33888 H 205.8678873649909 119.59490890289605 145.26624651895554 H 0.0 **** 0.06
33889 H 204.51554145031412 118.93022327774064 144.31893757220746 H 0.0 **** 0.06
33890 H 204.52303659824025 120.65190363571735 144.77063245305334 H 0.0 **** 0.06
33891 C 166.3740424336147 203.66048448438565 119.2224715114562 C 0.0 **** -0.24
33892 H 166.4945714040126 204.74075785254922 119.29715308159808 H 0.0 **** 0.06
33893 H 167.16845396183902 203.1666830294379 119.78285405765047 H 0.0 **** 0.06
33894 H 166.42587892048107 203.36057420874425 118.17663887045421 H 0.0 **** 0.06
33895 H 165.40620499176688 203.3737964390695 119.63604353499545 H 0.0 **** 0.06
33896 C 45.004967137450876 136.63024521566757 144.45609549957175 C 0.0 **** -0.24
33897 H 45.98997254554105 136.18507831539728 144.59867152965518 H 0.0 **** 0.06
33898 H 44.74025555750157 137.2152323464478 145.33618410391443 H 0.0 **** 0.06
33899 H 44.26795353043981 135.8407962704636 144.30738285729188 H 0.0 **** 0.06
33900 H 45.02363048458818 137.28010155336165 143.58067013311666 H 0.0 **** 0.06
33901 C 202.1381123185515 189.57589737126364 107.21281964432033 C 0.0 **** -0.24
33902 H 202.27117290443692 188.8236409219548 106.43541932983102 H 0.0 **** 0.06
33903 H 202.91951069576135 189.4633942529226 107.96407509556686 H 0.0 **** 0.06
33904 H 201.16226475162358 189.44494871703284 107.68059642344353 H 0.0 **** 0.06
33905 H 202.1986812702591 190.56982909452853 106.77010499679874 H 0.0 **** 0.06
33906 C 47.64768761297597 186.63914493436855 210.02972323080985 C 0.0 **** -0.24
33907 H 48.360892269294055 187.32662881304105 210.48395462919 H 0.0 **** 0.06
33908 H 48.07018362214177 186.23267161835076 209.1107027163552 H 0.0 **** 0.06
33909 H 46.7247746623832 187.17310887371661 209.79970722610605 H 0.0 **** 0.06
33910 H 47.43401225053293 185.82659157566567 210.72269796462513 H 0.0 **** 0.06
33911 C 27.37047154170287 161.6066562253177 186.1241479153271 C 0.0 **** -0.24
33912 H 27.060593696930965 160.9341539752091 186.92432201473895 H 0.0 **** 0.06
33913 H 27.89533605256888 161.03911669973414 185.35511847256234 H 0.0 **** 0.06
33914 H 28.033148493780843 162.37118470545477 186.52932515062088 H 0.0 **** 0.06
33915 H 26.49157305389339 162.08163075122474 185.68825597471232 H 0.0 **** 0.06
33916 C 58.16957121831767 199.10602498138303 84.7413715677759 C 0.0 **** -0.24
33917 H 58.23330845908772 200.1705813299103 84.96584311452278 H 0.0 **** 0.06
33918 H 57.868914106695 198.56208911359107 85.63677103611553 H 0.0 **** 0.06
33919 H 59.14216400935092 198.7456044411997 84.40635301116299 H 0.0 **** 0.06
33920 H 57.43238110721222 198.9453963293188 83.95396675927208 H 0.0 **** 0.06
33921 C 198.70508535002207 186.60862152474908 107.83296415202148 C 0.0 **** -0.24
33922 H 197.88990058913058 185.8882180146611 107.77330924979844 H 0.0 **** 0.06
33923 H 198.75149571021166 187.02175906875357 108.8407933005139 H 0.0 **** 0.06
33924 H 198.53215839956917 187.4131844742564 107.1186582960836 H 0.0 **** 0.06
33925 H 199.64680063855837 186.1123193542038 107.59899491509884 H 0.0 **** 0.06
33926 C 116.22407995180812 84.71478690039369 85.86260951598057 C 0.0 **** -0.24
33927 H 116.72936227098909 85.2206223623369 86.68633363673935 H 0.0 **** 0.06
33928 H 115.19933173700302 84.48371294699483 86.15247336538168 H 0.0 **** 0.06
33929 H 116.75226918558754 83.79205851392946 85.62490050331387 H 0.0 **** 0.06
33930 H 116.2174980915534 85.36557990771307 84.98738422916456 H 0.0 **** 0.06
33931 C 190.6861593236811 114.93040295196177 81.97865909363821 C 0.0 **** -0.24
33932 H 190.9275855004762 113.98649818475074 81.48882815701859 H 0.0 **** 0.06
33933 H 189.61295556210735 115.10966935689522 81.91197039096244 H 0.0 **** 0.06
33934 H 191.22155512382915 115.74167235709406 81.48597114295774 H 0.0 **** 0.06
33935 H 190.98378318286956 114.88195385499237 83.02582901765288 H 0.0 **** 0.06
33936 C 43.62422081527319 163.76934986509184 83.91274822264471 C 0.0 **** -0.24
33937 H 43.882195944122 164.55693739546726 84.62037442531108 H 0.0 **** 0.06
33938 H 43.597275910425964 162.81030465484676 84.43089531389892 H 0.0 **** 0.06
33939 H 44.37275825293537 163.7339914001931 83.12099849860037 H 0.0 **** 0.06
33940 H 42.64591251363687 163.97656353419688 83.47923063757212 H 0.0 **** 0.06
33941 C 99.20880848406641 173.29344385632027 79.18774217255555 C 0.0 **** -0.24
33942 H 100.10863634474423 172.8848429571582 79.64665419950842 H 0.0 **** 0.06
33943 H 98.72838363010179 172.52369574451285 78.58253727668335 H 0.0 **** 0.06
33944 H 99.47556476624239 174.13965609205968 78.55511031773977 H 0.0 **** 0.06
33945 H 98.52132657684128 173.62377883660054 79.96660131855464 H 0.0 **** 0.06
33946 C 156.54873129816428 58.047614668485096 52.32840760394717 C 0.0 **** -0.24
33947 H 156.28669691646326 57.04078733532964 52.00019140332671 H 0.0 **** 0.06
33948 H 155.64270740592292 58.58317057694768 52.61281702800076 H 0.0 **** 0.06
33949 H 157.04341694011651 58.57689232877459 51.5142943424149 H 0.0 **** 0.06
33950 H 157.22013783417083 57.98695498874514 53.18456868268191 H 0.0 **** 0.06
33951 C 78.79637183980924 49.72101185376718 212.95090658554204 C 0.0 **** -0.24
33952 H 78.51890510331407 50.75958269431757 213.1301381392185 H 0.0 **** 0.06
33953 H 79.82435714595579 49.67672431783325 212.5915377540085 H 0.0 **** 0.06
33954 H 78.1304481699558 49.29200516843288 212.2008738532305 H 0.0 **** 0.06
33955 H 78.71008898743565 49.15620476182647 213.87885612374077 H 0.0 **** 0.06
33956 C 141.81871207977008 42.46027971497551 51.690684183230815 C 0.0 **** -0.24
33957 H 141.96400004386095 42.94533922051289 52.65591929432577 H 0.0 **** 0.06
33958 H 140.80678431378806 42.05923201720128 51.635574534936666 H 0.0 **** 0.06
33959 H 142.5381561712391 41.649035895539896 51.58028129380415 H 0.0 **** 0.06
33960 H 141.9653268371202 43.187402391425934 50.89258967317954 H 0.0 **** 0.06
33961 C 83.75894383387943 109.8105640572082 86.36356545783865 C 0.0 **** -0.24
33962 H 83.27503407474374 109.87525800490859 87.33796074194099 H 0.0 **** 0.06
33963 H 83.00023064351917 109.81921664639619 85.57989869586412 H 0.0 **** 0.06
33964 H 84.3328704421041 108.88597856621409 86.3035067305987 H 0.0 **** 0.06
33965 H 84.42701667471972 110.66209861006566 86.23166119849655 H 0.0 **** 0.06
33966 C 87.78778847717523 172.98730609172097 211.78202746044292 C 0.0 **** -0.24
33967 H 88.46578820980257 173.2674595374154 210.9764540439252 H 0.0 **** 0.06
33968 H 86.78289863723897 173.34332985458616 211.55173926768018 H 0.0 **** 0.06
33969 H 88.12726763045428 173.4363143115241 212.71566264986666 H 0.0 **** 0.06
33970 H 87.77420078253301 171.90213112348687 211.88420280815387 H 0.0 **** 0.06
33971 C 45.6116751204998 132.72340379167179 90.97860243334388 C 0.0 **** -0.24
33972 H 44.688040416239716 133.16432557281126 91.35295126130704 H 0.0 **** 0.06
33973 H 45.41872239680487 131.70250768431902 90.64676430104375 H 0.0 **** 0.06
33974 H 46.35706760984624 132.71182969856295 91.77486761676197 H 0.0 **** 0.06
33975 H 45.98346704624967 133.31373128627035 90.14160223270109 H 0.0 **** 0.06
33976 C 164.11040191971716 69.34605650418064 116.77413440513713 C 0.0 **** -0.24
33977 H 164.88610617468186 70.10411033417137 116.66132282306482 H 0.0 **** 0.06
33978 H 163.78196815352692 69.31453162425419 117.81299656141304 H 0.0 **** 0.06
33979 H 164.50947788298 68.3730199035715 116.48861859603785 H 0.0 **** 0.06
33980 H 163.26473103316954 69.59514643532816 116.13223011796389 H 0.0 **** 0.06
33981 C 97.69455139023908 98.75504362407149 83.42046187395385 C 0.0 **** -0.24
33982 H 97.20880711032028 99.16095833656975 82.53250416342917 H 0.0 **** 0.06
33983 H 97.16542910728889 97.85831917548522 83.74502932786635 H 0.0 **** 0.06
33984 H 97.6736838340859 99.49852580924933 84.21711733147202 H 0.0 **** 0.06
33985 H 98.72848030343495 98.50277913821343 83.18483553974653 H 0.0 **** 0.06
33986 C 22.915549072058184 90.7902287355056 166.08979458876752 C 0.0 **** -0.24
33987 H 22.06021886156094 91.42868316517018 165.86824479249287 H 0.0 **** 0.06
33988 H 23.419878126949612 90.52348409484932 165.16006469887014 H 0.0 **** 0.06
33989 H 22.57375120657315 89.8847182528018 166.5903573806022 H 0.0 **** 0.06
33990 H 23.609387843770264 91.32506947049768 166.73789664366683 H 0.0 **** 0.06
33991 C 123.0493178889029 78.92542088408487 112.47631358271913 C 0.0 **** -0.24
33992 H 123.96389867613651 79.1279993741735 113.03347699920097 H 0.0 **** 0.06
33993 H 123.21265677141609 78.08140229118902 111.8057629352346 H 0.0 **** 0.06
33994 H 122.77698812387787 79.80617528938438 111.89368734373762 H 0.0 **** 0.06
33995 H 122.24490223548331 78.68741322645542 113.17137108153356 H 0.0 **** 0.06
33996 C 26.213725654438377 77.75248708841805 176.19802823112758 C 0.0 **** -0.24
33997 H 26.710897903152045 78.6691190696893 175.87790835880247 H 0.0 **** 0.06
33998 H 26.915081490124237 77.1370104243155 176.76076670698868 H 0.0 **** 0.06
33999 H 25.86942224562614 77.20307074590652 175.32230626144315 H 0.0 **** 0.06
34000 H 25.3616589579662 78.00309711846351 176.82816080191552 H 0.0 **** 0.06
34001 C 125.1615351400665 140.65276159835526 178.29267091278663 C 0.0 **** -0.24
34002 H 124.46647810777561 140.80848830179121 177.46758118869872 H 0.0 **** 0.06
34003 H 125.97006197939847 141.38101614009645 178.22790354499648 H 0.0 **** 0.06
34004 H 125.57464876807514 139.6452207265968 178.23500223743235 H 0.0 **** 0.06
34005 H 124.63621731359707 140.77596683578423 179.2396744950449 H 0.0 **** 0.06
34006 C 195.24994113210732 214.0332350497289 108.76557382144138 C 0.0 **** -0.24
34007 H 194.3761074673696 213.9520685631093 108.1190199828314 H 0.0 **** 0.06
34008 H 196.02822706290834 214.60030521084173 108.2542338267203 H 0.0 **** 0.06
34009 H 195.6216059880137 213.0363436522527 109.00084366487185 H 0.0 **** 0.06
34010 H 194.97310962104194 214.54518015044275 109.68744077105366 H 0.0 **** 0.06
34011 C 167.23503545439047 130.78594606986132 205.67129823475463 C 0.0 **** -0.24
34012 H 166.9618899639462 131.83634549934146 205.57932711152873 H 0.0 **** 0.06
34013 H 168.31477458731362 130.70029869555026 205.792182739097 H 0.0 **** 0.06
34014 H 166.92556581575315 130.25055467594132 204.77430062249786 H 0.0 **** 0.06
34015 H 166.73613892631153 130.35609297399452 206.54065358772976 H 0.0 **** 0.06
34016 C 202.2959193386361 3.229302549258449 74.39335236011908 C 0.0 **** -0.24
34017 H 201.7135034342535 2.7739669557352045 75.194095978218 H 0.0 **** 0.06
34018 H 203.3501974209916 3.238377979857461 74.67047598420197 H 0.0 **** 0.06
34019 H 201.95305145792648 4.251521285453066 74.231035938135 H 0.0 **** 0.06
34020 H 202.16610186108016 2.653188260685681 73.4766621713033 H 0.0 **** 0.06
34021 C 112.78895715686583 156.21370683522935 115.80198519456847 C 0.0 **** -0.24
34022 H 113.59754982951186 156.6745103517402 115.23347911112866 H 0.0 **** 0.06
34023 H 112.74658278301665 156.65733429842476 116.79674708760724 H 0.0 **** 0.06
34024 H 112.97034452636852 155.14286826673634 115.88847508816995 H 0.0 **** 0.06
34025 H 111.84262614203998 156.38217965881364 115.28890757956394 H 0.0 **** 0.06
34026 C 173.56205450941133 167.4961561292376 205.1297800387577 C 0.0 **** -0.24
34027 H 173.22906314924535 166.49375779490404 204.8591945927438 H 0.0 **** 0.06
34028 H 172.89266224753817 167.9080229086338 205.8861509276058 H 0.0 **** 0.06
34029 H 173.54994494056422 168.13437993065813 204.24669348523634 H 0.0 **** 0.06
34030 H 174.57502146765637 167.44722711276535 205.52854440458736 H 0.0 **** 0.06
34031 C 0.11638679899577653 194.78353797785417 161.69212747509096 C 0.0 **** -0.24
34032 H 0.5063317020708453 195.17695989510105 162.63132198006977 H 0.0 **** 0.06
34033 H -0.948088857462615 195.0064721055604 161.6183908451848 H 0.0 **** 0.06
34034 H 0.2654373329129385 193.70506117507105 161.66090520160668 H 0.0 **** 0.06
34035 H 0.6436555669529653 195.2480512668304 160.85761430990775 H 0.0 **** 0.06
34036 C 7.952566454040237 210.81616725394272 127.4115375996705 C 0.0 **** -0.24
34037 H 7.740433354636991 209.80506253611892 127.75805011395617 H 0.0 **** 0.06
34038 H 7.652600936703806 211.53335212449412 128.17565911384975 H 0.0 **** 0.06
34039 H 7.39792034270269 211.00859445806773 126.49338478475399 H 0.0 **** 0.06
34040 H 9.021045464180702 210.9167372175143 127.21759316029603 H 0.0 **** 0.06
34041 C 17.752557068198826 64.26842887006518 15.027104489586094 C 0.0 **** -0.24
34042 H 17.002500846605642 63.52626327946649 15.297222996314687 H 0.0 **** 0.06
34043 H 18.438365576288504 63.84242444623169 14.294553424090907 H 0.0 **** 0.06
34044 H 18.307940304820022 64.56396165499837 15.917151661367399 H 0.0 **** 0.06
34045 H 17.261015114851602 65.14274936508872 14.59952837967053 H 0.0 **** 0.06
34046 C 20.61100580982807 64.5829981433545 167.7177392365584 C 0.0 **** -0.24
34047 H 20.17139063078524 64.7231133948677 168.70630606897328 H 0.0 **** 0.06
34048 H 21.659050649117148 64.88109450698711 167.7424921270103 H 0.0 **** 0.06
34049 H 20.075468044143108 65.1951536134619 166.99295713324977 H 0.0 **** 0.06
34050 H 20.537099579044295 63.533488866237775 167.43370002339628 H 0.0 **** 0.06
34051 C 8.950685055671315 146.5479280936774 96.36441539412078 C 0.0 **** -0.24
34052 H 7.95074024089908 146.79873345474465 96.01010877730221 H 0.0 **** 0.06
34053 H 8.909628707623824 146.31014778599297 97.42798347386508 H 0.0 **** 0.06
34054 H 9.614642564326346 147.3975132832225 96.20788248159079 H 0.0 **** 0.06
34055 H 9.326062657085004 145.6861685178879 95.81326821507457 H 0.0 **** 0.06
34056 C 38.97010513756716 46.289775149124154 113.20449411054575 C 0.0 **** -0.24
34057 H 37.9249802659653 46.05663668087119 113.0052917916611 H 0.0 **** 0.06
34058 H 39.54101271090737 45.36385780800714 113.28349905008189 H 0.0 **** 0.06
34059 H 39.0458787718174 46.84432552315255 114.14083240827291 H 0.0 **** 0.06
34060 H 39.36891917988767 46.89497473383486 112.39067290729072 H 0.0 **** 0.06
34061 C 207.19470137034483 133.45368204595366 201.44392135276547 C 0.0 **** -0.24
34062 H 206.69998679593 133.0705297823377 202.33641335228094 H 0.0 **** 0.06
34063 H 208.25683833942338 133.5885863513592 201.6471577080452 H 0.0 **** 0.06
34064 H 206.75274058523937 134.40962191922506 201.16539714115729 H 0.0 **** 0.06
34065 H 207.06878601959792 132.74380567431183 200.62656769996465 H 0.0 **** 0.06
34066 C 9.427777370481706 75.55039374627235 149.33215380794348 C 0.0 **** -0.24
34067 H 8.338218475302796 75.51428964062136 149.33040739438087 H 0.0 **** 0.06
34068 H 9.771037753566205 76.17415459353121 148.5064414720032 H 0.0 **** 0.06
34069 H 9.824956772086125 74.54233930081215 149.21549668232666 H 0.0 **** 0.06
34070 H 9.775363163420323 75.97165079518628 150.27488745728675 H 0.0 **** 0.06
34071 C 47.883104797810574 150.16193965124046 6.8588410632783905 C 0.0 **** -0.24
34072 H 47.6084078098046 151.12360923902918 6.427082703440007 H 0.0 **** 0.06
34073 H 48.746292627386325 150.29038656034925 7.512755673613569 H 0.0 **** 0.06
34074 H 48.13351870192578 149.46268135588105 6.060557364573668 H 0.0 **** 0.06
34075 H 47.04527361767994 149.77050197392998 7.435683842687439 H 0.0 **** 0.06
34076 C 203.07578772348097 66.82818628618942 45.5168651369475 C 0.0 **** -0.24
34077 H 202.30364141589774 67.31762107576654 46.110496170480474 H 0.0 **** 0.06
34078 H 203.02896209954704 65.75130876786667 45.678557147988215 H 0.0 **** 0.06
34079 H 204.05488286466252 67.1989723613137 45.81929945832741 H 0.0 **** 0.06
34080 H 202.91434598446364 67.04593070958185 44.46157321006427 H 0.0 **** 0.06
34081 C 51.72971320393448 119.86387883850689 12.107499270462085 C 0.0 **** -0.24
34082 H 52.059112223242906 120.73390151439337 12.67496993525259 H 0.0 **** 0.06
34083 H 50.80596523476207 119.47752479295333 12.539033034421209 H 0.0 **** 0.06
34084 H 52.499345167534244 119.09317954861918 12.146169372740417 H 0.0 **** 0.06
34085 H 51.555363810021234 120.15135871534441 11.071212762742988 H 0.0 **** 0.06
34086 C 73.36699629126741 146.75063784695294 215.11256619824593 C 0.0 **** -0.24
34087 H 72.45563152078057 147.28621160938803 215.37742489232616 H 0.0 **** 0.06
34088 H 73.65451976922117 147.0061921079042 214.09202544483975 H 0.0 **** 0.06
34089 H 73.1901593425298 145.67647214346732 215.18226485805954 H 0.0 **** 0.06
34090 H 74.16663226636518 147.03214306076939 215.79779773599404 H 0.0 **** 0.06
34091 C 137.05214196086888 2.7438938627695606 188.91095606292131 C 0.0 **** -0.24
34092 H 137.9804473060716 2.208514455960895 189.10718346390226 H 0.0 **** 0.06
34093 H 136.81030391220833 2.6753507765003235 187.84946966578698 H 0.0 **** 0.06
34094 H 137.17107563749545 3.791491896553417 189.18944896201975 H 0.0 **** 0.06
34095 H 136.2459975391493 2.301789601250526 189.4959963362129 H 0.0 **** 0.06
34096 C 58.789719787271025 67.16010395366693 91.89209815427348 C 0.0 **** -0.24
34097 H 59.17271094386507 67.02300504397664 90.88059046351249 H 0.0 **** 0.06
34098 H 59.47522648911084 67.79198263358607 92.45733442529796 H 0.0 **** 0.06
34099 H 58.70147674711899 66.18990125926607 92.38179402674645 H 0.0 **** 0.06
34100 H 57.80914290511839 67.63546077207577 91.8472982238785 H 0.0 **** 0.06
34101 C 63.69574941244079 141.80729489279832 4.231812302262796 C 0.0 **** -0.24
34102 H 64.55428622541996 141.81998642788392 3.561127141568136 H 0.0 **** 0.06
34103 H 63.57474058705128 142.791104836922 4.685050641440085 H 0.0 **** 0.06
34104 H 63.85554453157914 141.0642011243441 5.013423021818085 H 0.0 **** 0.06
34105 H 62.79799295147512 141.55395345683849 3.6685471971404127 H 0.0 **** 0.06
34106 C 57.56442377852302 144.04677016533844 78.74083070647191 C 0.0 **** -0.24
34107 H 58.281291590835295 143.44554569221384 78.18068177379075 H 0.0 **** 0.06
34108 H 56.56209577555293 143.64520742512616 78.5943381658717 H 0.0 **** 0.06
34109 H 57.6005957747944 145.07688433188753 78.38627390129511 H 0.0 **** 0.06
34110 H 57.81628757502398 144.01818239376314 79.80069602570626 H 0.0 **** 0.06
34111 C 164.80592453207777 198.98518497438002 119.91744003411033 C 0.0 **** -0.24
34112 H 163.94163752699794 199.562070416469 120.24325019292102 H 0.0 **** 0.06
34113 H 165.57604070891125 199.66281149162342 119.54704897490124 H 0.0 **** 0.06
34114 H 164.50847561194487 198.30216475930825 119.12177260233996 H 0.0 **** 0.06
34115 H 165.1991544433223 198.41306884773624 120.7575558029619 H 0.0 **** 0.06
34116 C 148.33593619925563 191.05815466752495 199.24568554452762 C 0.0 **** -0.24
34117 H 147.76935002563772 190.34264024976505 198.64933550371632 H 0.0 **** 0.06
34118 H 149.36890418247827 191.08200324011858 198.89969636220522 H 0.0 **** 0.06
34119 H 148.30942014677498 190.75995486858557 200.29342019757175 H 0.0 **** 0.06
34120 H 147.89366520717903 192.05004066407287 199.13922559253191 H 0.0 **** 0.06
34121 C 55.43545544116881 209.61364213613712 34.94465708926403 C 0.0 **** -0.24
34122 H 55.298955294001416 210.36950685158817 35.71833815142065 H 0.0 **** 0.06
34123 H 55.790324907855904 210.09080023893895 34.0305001205661 H 0.0 **** 0.06
34124 H 54.483981577736245 209.1180474534892 34.750140906326024 H 0.0 **** 0.06
34125 H 56.1668337292964 208.87858226126517 35.28029068837239 H 0.0 **** 0.06
34126 C 85.82231716970007 204.7327650839058 127.39133027475772 C 0.0 **** -0.24
34127 H 85.31552841261775 203.83422966602217 127.74445547727028 H 0.0 **** 0.06
34128 H 86.3475808344809 205.2040577488508 128.2228941430609 H 0.0 **** 0.06
34129 H 85.08896595112687 205.4275727502943 126.98405100276285 H 0.0 **** 0.06
34130 H 86.53869820406312 204.46357786841548 126.61424300974487 H 0.0 **** 0.06
34131 C 91.17077104334567 58.89416452261497 183.89359621549525 C 0.0 **** -0.24
34132 H 92.25118160973938 59.00051358631384 183.79213176497257 H 0.0 **** 0.06
34133 H 90.67258125758235 59.5805520600062 183.2086456852357 H 0.0 **** 0.06
34134 H 90.87768896393533 59.12531372523415 184.91750396081994 H 0.0 **** 0.06
34135 H 90.88357418688969 57.86984927837068 183.65508124525758 H 0.0 **** 0.06
34136 C 39.12714313995848 58.258670580462905 112.09783750380633 C 0.0 **** -0.24
34137 H 39.24648251436554 58.923354829174315 112.9529322852046 H 0.0 **** 0.06
34138 H 38.07809236159463 58.2370457410413 111.79880405037683 H 0.0 **** 0.06
34139 H 39.44809827383229 57.25345767591335 112.37095094990967 H 0.0 **** 0.06
34140 H 39.73380565868115 58.62160065299497 111.26854776136126 H 0.0 **** 0.06
34141 C 80.40869910154608 76.2203909898913 3.524172728721858 C 0.0 **** -0.24
34142 H 81.38916189077948 76.07202313969098 3.0706919118866622 H 0.0 **** 0.06
34143 H 80.52065446673988 76.77647015516096 4.454978345241557 H 0.0 **** 0.06
34144 H 79.95460586425672 75.25216555694531 3.7311025526368056 H 0.0 **** 0.06
34145 H 79.77364106052757 76.78129129979918 2.838832481098194 H 0.0 **** 0.06
34146 C 73.08494811737455 192.70524881957252 191.1203094440782 C 0.0 **** -0.24
34147 H 72.09333304701124 193.04371485446256 191.41918469662312 H 0.0 **** 0.06
34148 H 73.55841761403678 193.46742464906652 190.5010649165315 H 0.0 **** 0.06
34149 H 72.99559931342577 191.77973615855853 190.55149115820566 H 0.0 **** 0.06
34150 H 73.69123002447947 192.5288697509282 192.00809420891662 H 0.0 **** 0.06
34151 C 123.77015479456509 91.61009179782637 22.36540626479399 C 0.0 **** -0.24
34152 H 124.56910253320586 91.70608079730029 21.63010512838818 H 0.0 **** 0.06
34153 H 122.80578329193429 91.73544835917816 21.870911056996675 H 0.0 **** 0.06
34154 H 123.88809706310377 92.37534968381125 23.13185789851542 H 0.0 **** 0.06
34155 H 123.81630095270913 90.62345608386032 22.825255825723673 H 0.0 **** 0.06
34156 C 121.74366038960436 141.3344650539051 128.6130611318311 C 0.0 **** -0.24
34157 H 121.10979100251502 141.8423922425759 127.8864789265748 H 0.0 **** 0.06
34158 H 121.14105506107954 140.63765436930964 129.19647851300618 H 0.0 **** 0.06
34159 H 122.19569591976834 142.07014310138214 129.27727104095715 H 0.0 **** 0.06
34160 H 122.52791043470147 140.78692372024943 128.08894901044698 H 0.0 **** 0.06
34161 C 42.91931989251731 166.1482646168968 138.6935102079933 C 0.0 **** -0.24
34162 H 43.96329466064715 166.3642276946422 138.4666671627769 H 0.0 **** 0.06
34163 H 42.42718388420553 167.05852632971022 139.03673449066366 H 0.0 **** 0.06
34164 H 42.86611556668838 165.38956305275647 139.47387894238574 H 0.0 **** 0.06
34165 H 42.4211151231402 165.7818181585145 137.79547337571807 H 0.0 **** 0.06
34166 C 31.955559035517865 197.02210936877154 190.92299740755544 C 0.0 **** -0.24
34167 H 32.20219661017387 196.60991238145562 189.94429740482641 H 0.0 **** 0.06
34168 H 30.968120350137326 197.48333413639853 190.88455638387663 H 0.0 **** 0.06
34169 H 32.69745740622801 197.7723149975431 191.1970274466852 H 0.0 **** 0.06
34170 H 31.955512827855955 196.22338001635302 191.66420017560182 H 0.0 **** 0.06
34171 C 1.6116547853926306 61.26834913833278 60.798676969113615 C 0.0 **** -0.24
34172 H 1.0758677403422752 62.199689255166135 60.98305422314667 H 0.0 **** 0.06
34173 H 1.0010159418889586 60.614901522764626 60.17687513074219 H 0.0 **** 0.06
34174 H 1.8205249091292899 60.77634414938274 61.749126081356906 H 0.0 **** 0.06
34175 H 2.5504828116624907 61.48445319679428 60.288553343468664 H 0.0 **** 0.06
34176 C 170.19572514392814 145.51902911566657 30.094736746356034 C 0.0 **** -0.24
34177 H 169.8406783625567 144.6025983875969 30.566743791193687 H 0.0 **** 0.06
34178 H 169.9939162942469 146.36639587865022 30.750633009744604 H 0.0 **** 0.06
34179 H 169.67953207978533 145.66286865767336 29.146489408841006 H 0.0 **** 0.06
34180 H 171.26812240302192 145.44366923982636 29.917138519682112 H 0.0 **** 0.06
34181 C 27.90777944795903 33.662062343857045 30.61918294086614 C 0.0 **** -0.24
34182 H 28.958200002991475 33.864100032907345 30.831078158774503 H 0.0 **** 0.06
34183 H 27.500081446356774 34.46629334091047 30.006977930755568 H 0.0 **** 0.06
34184 H 27.35411802064644 33.600619005705695 31.55607294314396 H 0.0 **** 0.06
34185 H 27.82170138015846 32.71725788707812 30.082920660304666 H 0.0 **** 0.06
34186 C 82.41775103714906 136.47202913125415 151.05267331903678 C 0.0 **** -0.24
34187 H 81.95359416137387 135.92637099741938 150.2304563456417 H 0.0 **** 0.06
34188 H 82.29176849955314 137.54286170356482 150.89433781811317 H 0.0 **** 0.06
34189 H 83.47971133273683 136.2317822294707 151.09310692722312 H 0.0 **** 0.06
34190 H 81.94382890818554 136.184949867765 151.9913939647506 H 0.0 **** 0.06
34191 C 186.88328525793776 119.17824627405473 57.173681319225125 C 0.0 **** -0.24
34192 H 187.024903496243 120.0360606045977 57.832244916045795 H 0.0 **** 0.06
34193 H 187.6628343950772 119.17389877280276 56.41155640409244 H 0.0 **** 0.06
34194 H 185.90663492222217 119.2439441079636 56.69579009040734 H 0.0 **** 0.06
34195 H 186.94065005830487 118.25926411476574 57.75746314150291 H 0.0 **** 0.06
34196 C 142.4594962559991 71.48099164721981 117.74864288587501 C 0.0 **** -0.24
34197 H 142.35230852871803 72.33363204335558 118.41879829622822 H 0.0 **** 0.06
34198 H 141.55592156255472 70.8725230271059 117.78691623305097 H 0.0 **** 0.06
34199 H 143.31515680029628 70.88062652013343 118.05878462004624 H 0.0 **** 0.06
34200 H 142.6159566388339 71.83611145282276 116.73002754629478 H 0.0 **** 0.06
34201 C 147.98784087137648 105.54624462595592 115.96024797208285 C 0.0 **** -0.24
34202 H 148.67972015764474 106.27567943695703 115.53867347916086 H 0.0 **** 0.06
34203 H 148.1009775694327 104.59529375404838 115.43976102514308 H 0.0 **** 0.06
34204 H 146.96560120665737 105.90527797104988 115.8424886598958 H 0.0 **** 0.06
34205 H 148.20586227535767 105.4092670697342 117.01979974875887 H 0.0 **** 0.06
34206 C 211.7047735485262 196.47174848569853 102.979226845788 C 0.0 **** -0.24
34207 H 212.09121851685785 195.9129005419822 103.83195506196999 H 0.0 **** 0.06
34208 H 212.36083985110102 196.32281780587707 102.1213429353508 H 0.0 **** 0.06
34209 H 211.66557274807934 197.53235290517705 103.22730686696916 H 0.0 **** 0.06
34210 H 210.7034136409251 196.11746199347868 102.73655105982137 H 0.0 **** 0.06
34211 C 7.118738590717612 120.8083741631035 136.06718424365414 C 0.0 **** -0.24
34212 H 7.642983771261569 120.9466455292277 135.12190431340088 H 0.0 **** 0.06
34213 H 7.815728471707715 120.95719465627978 136.89339653179553 H 0.0 **** 0.06
34214 H 6.710803212338533 119.7987049785434 136.11291168206725 H 0.0 **** 0.06
34215 H 6.307009948578724 121.53293703557257 136.14213366609033 H 0.0 **** 0.06
34216 C 46.57406541792051 204.80925504483994 132.63433489184183 C 0.0 **** -0.24
34217 H 46.55263754638196 205.89381589415694 132.52418154401698 H 0.0 **** 0.06
34218 H 47.24998100255942 204.53957982341888 133.44592255608 H 0.0 **** 0.06
34219 H 46.92101904958821 204.35697900665144 131.70515153912436 H 0.0 **** 0.06
34220 H 45.5705867936212 204.4474908796494 132.8617167303218 H 0.0 **** 0.06
34221 C 71.54537475892306 186.05924178032774 45.71749643566545 C 0.0 **** -0.24
34222 H 72.52560444966315 186.5020773031521 45.54328800816455 H 0.0 **** 0.06
34223 H 71.6081436246468 184.978151840861 45.592425444086984 H 0.0 **** 0.06
34224 H 70.83122502000145 186.467203104534 45.00183460652909 H 0.0 **** 0.06
34225 H 71.21672509430556 186.2907364906161 46.730562440591825 H 0.0 **** 0.06
34226 C 132.3338863607981 88.99279463122015 134.10712834957155 C 0.0 **** -0.24
34227 H 132.89227707418047 89.3475319764636 133.24051922600944 H 0.0 **** 0.06
34228 H 131.40127252517476 88.53488175649035 133.77514130771948 H 0.0 **** 0.06
34229 H 132.11201754518333 89.83323708435263 134.76442876794772 H 0.0 **** 0.06
34230 H 132.92875194041653 88.25573841135731 134.6465662122929 H 0.0 **** 0.06
34231 C 201.2302079495615 152.93546618467633 196.57445427041063 C 0.0 **** -0.24
34232 H 201.1571080251397 151.84855180154506 196.55384734612358 H 0.0 **** 0.06
34233 H 201.6952399583466 153.28563129814864 195.65250211670832 H 0.0 **** 0.06
34234 H 201.83500281851127 153.24220640325711 197.42702609638923 H 0.0 **** 0.06
34235 H 200.23250799997044 153.36448851469083 196.66340243116815 H 0.0 **** 0.06
34236 C 104.93142865667336 63.50632058440283 17.14108692153235 C 0.0 **** -0.24
34237 H 104.15819855134588 64.06853297088918 16.618747423326795 H 0.0 **** 0.06
34238 H 104.84646480258392 62.449932496347174 16.887263204996714 H 0.0 **** 0.06
34239 H 104.80926530607731 63.63291858906888 18.216492978132862 H 0.0 **** 0.06
34240 H 105.91310232807542 63.87441364070463 16.841803690548176 H 0.0 **** 0.06
34241 C 187.06061062084103 15.242977313055917 66.63905135467729 C 0.0 **** -0.24
34242 H 187.84089286907738 15.763411604868736 67.19443221345045 H 0.0 **** 0.06
34243 H 186.08382305109012 15.604024687220914 66.96271011457752 H 0.0 **** 0.06
34244 H 187.1333844012152 14.171668110472638 66.82747564398683 H 0.0 **** 0.06
34245 H 187.18430363541057 15.433888322719042 65.57293824374923 H 0.0 **** 0.06
34246 C 188.5183690155139 158.2283288213523 93.62259674600328 C 0.0 **** -0.24
34247 H 187.96184359096927 158.83197476877928 92.90651076089448 H 0.0 **** 0.06
34248 H 187.95584209385484 157.32201305474348 93.84862184267946 H 0.0 **** 0.06
34249 H 188.67169053533289 158.79945563266728 94.53912325458553 H 0.0 **** 0.06
34250 H 189.4861359609155 157.9597042115691 93.19748250491448 H 0.0 **** 0.06
34251 C 147.63465113026365 189.06274630916727 146.09479474551569 C 0.0 **** -0.24
34252 H 147.5671921352918 189.49859141363373 145.09854706183302 H 0.0 **** 0.06
34253 H 147.30012168133817 188.02637251946433 146.06186246807812 H 0.0 **** 0.06
34254 H 147.0034669893755 189.62795446913356 146.7818256638406 H 0.0 **** 0.06
34255 H 148.66902113799347 189.10071080412476 146.43819908591456 H 0.0 **** 0.06
34256 C 15.256821656754482 150.35842458687642 207.44269464218354 C 0.0 **** -0.24
34257 H 14.982436318009547 150.09040897006253 208.46329518234558 H 0.0 **** 0.06
34258 H 14.66650417875968 149.76796320335882 206.74090778551002 H 0.0 **** 0.06
34259 H 16.316442737315697 150.15619429673495 207.2863865731606 H 0.0 **** 0.06
34260 H 15.061762274980197 151.41855619105553 207.28099443939112 H 0.0 **** 0.06
34261 C 130.1232524529982 159.07378275250665 194.51838380552977 C 0.0 **** -0.24
34262 H 130.6004922324102 158.73261183247615 195.43683234854413 H 0.0 **** 0.06
34263 H 130.77615161593457 158.86466729088025 193.67096859225512 H 0.0 **** 0.06
34264 H 129.94036209167143 160.1463666371979 194.58154280192358 H 0.0 **** 0.06
34265 H 129.17562359606154 158.5512555705526 194.3855341155047 H 0.0 **** 0.06
34266 C 199.64669020381797 49.16404346173323 152.00154104151972 C 0.0 **** -0.24
34267 H 199.73785898535374 50.24870101822165 151.9395137554559 H 0.0 **** 0.06
34268 H 199.12360222655883 48.896068218366565 152.9205564963242 H 0.0 **** 0.06
34269 H 200.64034948835678 48.716132758997276 152.0047602700127 H 0.0 **** 0.06
34270 H 199.08499375770393 48.79699532540093 151.14275765876846 H 0.0 **** 0.06
34271 C 22.320497302944148 148.61556551044777 107.49888397258555 C 0.0 **** -0.24
34272 H 22.8487928545282 148.37245406848632 106.57690199004615 H 0.0 **** 0.06
34273 H 21.398089105049564 148.03630729725347 107.55153559463339 H 0.0 **** 0.06
34274 H 22.08235616781397 149.6797805059577 107.51182237617901 H 0.0 **** 0.06
34275 H 22.951289903326597 148.3736317544957 108.35358559894162 H 0.0 **** 0.06
34276 C 94.25324771843879 136.70495804226192 131.76678094054506 C 0.0 **** -0.24
34277 H 94.96278128819677 136.93119894135015 130.97104838451696 H 0.0 **** 0.06
34278 H 93.25956355051937 137.04483541276437 131.4745955757395 H 0.0 **** 0.06
34279 H 94.55795337246013 137.21428203502597 132.68149219874658 H 0.0 **** 0.06
34280 H 94.23353799958164 135.6284746902249 131.94043657035093 H 0.0 **** 0.06
34281 C 34.78478164675306 20.01335744304508 127.85895978388936 C 0.0 **** -0.24
34282 H 33.728285942318564 19.94864052043276 127.59863367349078 H 0.0 **** 0.06
34283 H 35.064547137374575 19.14803604298993 128.46013886510258 H 0.0 **** 0.06
34284 H 34.96254487888433 20.92487756869211 128.4295703602641 H 0.0 **** 0.06
34285 H 35.383346615883056 20.032615018736365 126.94863278365779 H 0.0 **** 0.06
34286 C 92.60951688762607 50.26052928538502 92.59580646280303 C 0.0 **** -0.24
34287 H 92.23856274726573 49.285844230502036 92.27859957684744 H 0.0 **** 0.06
34288 H 93.07877641142234 50.76270113832413 91.75017707862476 H 0.0 **** 0.06
34289 H 93.34168965024598 50.12774303918465 93.39222657387653 H 0.0 **** 0.06
34290 H 91.77847655327714 50.862729319143256 92.96250144846944 H 0.0 **** 0.06
34291 C 98.31235681866174 96.78778566873359 117.39375592050159 C 0.0 **** -0.24
34292 H 98.16505773526536 96.85130722271373 118.47241673288444 H 0.0 **** 0.06
34293 H 99.2232138264708 97.32099122921841 117.1203304482202 H 0.0 **** 0.06
34294 H 97.460999886809 97.23841740591126 116.88482613350057 H 0.0 **** 0.06
34295 H 98.40018847082509 95.74196867643582 117.10021112337922 H 0.0 **** 0.06
34296 C 171.61269849421558 26.114010579480066 33.49535606085698 C 0.0 **** -0.24
34297 H 171.8501494251992 26.221198754995726 34.554078356030345 H 0.0 **** 0.06
34298 H 172.34410255988723 25.455438451858527 33.025350734245535 H 0.0 **** 0.06
34299 H 171.64355278241177 27.092835711145312 33.01618644523887 H 0.0 **** 0.06
34300 H 170.61611694323904 25.68666888513104 33.387859956504656 H 0.0 **** 0.06
34301 C 205.3434587864804 24.869818913906855 35.09817637011287 C 0.0 **** -0.24
34302 H 205.87118568808012 25.252989553477065 34.22448150096352 H 0.0 **** 0.06
34303 H 206.06620056295588 24.480768566916495 35.8164446448626 H 0.0 **** 0.06
34304 H 204.6683053369454 24.071603150665226 34.79262028398557 H 0.0 **** 0.06
34305 H 204.7714408167817 25.674896105815122 35.55807991771846 H 0.0 **** 0.06
34306 C 130.0140219998703 18.922873159821677 134.7979633435976 C 0.0 **** -0.24
34307 H 130.3067000578481 18.02009051532724 134.26050244992967 H 0.0 **** 0.06
34308 H 129.596517526504 18.649161157543148 135.76688175604482 H 0.0 **** 0.06
34309 H 129.2646278240053 19.462329709784626 134.21842806192262 H 0.0 **** 0.06
34310 H 130.88731154554569 19.557457172149782 134.94378039269588 H 0.0 **** 0.06
34311 C 126.75004414983566 4.159279794941483 103.66482856218816 C 0.0 **** -0.24
34312 H 126.21400692662182 4.458710165953931 104.56625837630604 H 0.0 **** 0.06
34313 H 126.65626556552523 3.0816110613610306 103.52798621567784 H 0.0 **** 0.06
34314 H 127.8021468542983 4.423718639784681 103.76298204301274 H 0.0 **** 0.06
34315 H 126.32489448175095 4.673689410532063 102.80274524168941 H 0.0 **** 0.06
34316 C 107.65839180608725 139.56548221609359 82.59454322284762 C 0.0 **** -0.24
34317 H 107.75775907689717 140.642898183846 82.45832232092312 H 0.0 **** 0.06
34318 H 107.61327839057827 139.3367677422105 83.65958013070741 H 0.0 **** 0.06
34319 H 108.51731081731992 139.06328774642134 82.15000641431465 H 0.0 **** 0.06
34320 H 106.74504586029104 139.22228589647665 82.11016673623664 H 0.0 **** 0.06
34321 C 33.91355310324654 115.8145317384464 129.48729720210275 C 0.0 **** -0.24
34322 H 34.64162811193887 116.38216327984104 130.0654427938863 H 0.0 **** 0.06
34323 H 34.055455691107355 116.0164912725191 128.4256700845728 H 0.0 **** 0.06
34324 H 32.906401687964006 116.1090254125585 129.78233218251017 H 0.0 **** 0.06
34325 H 34.04999850582247 114.74906580133548 129.67649326845998 H 0.0 **** 0.06
34326 C 10.981613476397612 45.151739938110865 37.599541661580446 C 0.0 **** -0.24
34327 H 11.622044507669372 45.93958909373134 37.99759060222598 H 0.0 **** 0.06
34328 H 10.964577012296076 44.31221194416321 38.29444715230767 H 0.0 **** 0.06
34329 H 11.370720909998298 44.81979091983851 36.637852333945176 H 0.0 **** 0.06
34330 H 9.970712723842098 45.537056314038864 37.47103066876417 H 0.0 **** 0.06
34331 C 184.32737352299884 106.47995770941675 211.87797263422658 C 0.0 **** -0.24
34332 H 184.1110308619913 105.95107580856155 212.80625380215605 H 0.0 **** 0.06
34333 H 184.92478743574893 105.84184607305771 211.2270876313788 H 0.0 **** 0.06
34334 H 184.87841435559585 107.39318602064064 212.10017562806104 H 0.0 **** 0.06
34335 H 183.39167478257622 106.73281455054622 211.37893112427713 H 0.0 **** 0.06
34336 C 160.94791756942112 86.5209739820029 189.28086212005246 C 0.0 **** -0.24
34337 H 161.26961996373592 87.0791589807581 188.40224206835543 H 0.0 **** 0.06
34338 H 159.88143716681805 86.67952258597278 189.4414330734356 H 0.0 **** 0.06
34339 H 161.50256715557475 86.86733166487453 190.1537701069544 H 0.0 **** 0.06
34340 H 161.14011173053916 85.4588147037917 189.12693284771834 H 0.0 **** 0.06
34341 C 50.04117481935958 69.50186962713678 180.13161971115662 C 0.0 **** -0.24
34342 H 50.02517086375727 68.48035779438014 180.50973154913856 H 0.0 **** 0.06
34343 H 49.72975633361804 69.5079907265854 179.0871565990823 H 0.0 **** 0.06
34344 H 51.0514549101764 69.9034222175848 180.21177453513707 H 0.0 **** 0.06
34345 H 49.35908896284917 70.1167946411877 180.71828847528997 H 0.0 **** 0.06
34346 C 215.7596609239065 144.72248744974576 18.631716369150894 C 0.0 **** -0.24
34347 H 216.81840486902237 144.72338261515472 18.889261665935607 H 0.0 **** 0.06
34348 H 215.535982767527 143.8512536347128 18.01509502756798 H 0.0 **** 0.06
34349 H 215.5192253147909 145.6299057871239 18.079074721638506 H 0.0 **** 0.06
34350 H 215.16431254006147 144.68366004081105 19.544629778030014 H 0.0 **** 0.06
34351 C 104.76259503057075 137.467133500072 196.99353266167844 C 0.0 **** -0.24
34352 H 105.23417125004094 136.60354159360367 197.46211245089884 H 0.0 **** 0.06
34353 H 105.030178984541 138.36945980359337 197.54335100083273 H 0.0 **** 0.06
34354 H 103.67930496235043 137.3409013201591 197.0080319011347 H 0.0 **** 0.06
34355 H 105.10457735446319 137.5533078740662 195.9622590797935 H 0.0 **** 0.06
34356 C 9.244698523444185 154.40066295920474 63.96549894990011 C 0.0 **** -0.24
34357 H 8.394022777500709 154.91445759326166 64.41385036929289 H 0.0 **** 0.06
34358 H 8.99460171010196 154.10554358874225 62.946063669375434 H 0.0 **** 0.06
34359 H 9.48447777490361 153.51398747889448 64.55246883145966 H 0.0 **** 0.06
34360 H 10.10527017965947 155.06998115744284 63.949321093005906 H 0.0 **** 0.06
34361 C 17.568265543537464 18.043102889006718 95.44951875266996 C 0.0 **** -0.24
34362 H 18.143484400675845 18.959800729323632 95.58031048125731 H 0.0 **** 0.06
34363 H 17.361718256640472 17.892697989069006 94.38955142625237 H 0.0 **** 0.06
34364 H 16.628759189701242 18.122476781156706 95.9960072931408 H 0.0 **** 0.06
34365 H 18.141209047183793 17.19814772435744 95.83198921520521 H 0.0 **** 0.06
34366 C 180.6652322495185 19.060175993179158 185.71311860439744 C 0.0 **** -0.24
34367 H 181.56520255239883 19.3575638752134 185.1736716097624 H 0.0 **** 0.06
34368 H 180.94628093409466 18.578432285609992 186.6499306365581 H 0.0 **** 0.06
34369 H 180.09069204345803 18.362860949516616 185.1030985847447 H 0.0 **** 0.06
34370 H 180.0602229116351 19.941189213197504 185.92422171086443 H 0.0 **** 0.06
34371 C 176.61895931328348 97.23554993861592 36.065764300736376 C 0.0 **** -0.24
34372 H 177.70008106632662 97.36398831209442 36.11891010676845 H 0.0 **** 0.06
34373 H 176.30113651887723 97.25625820646786 35.02279738150912 H 0.0 **** 0.06
34374 H 176.13025397345794 98.04339220673978 36.610197118470126 H 0.0 **** 0.06
34375 H 176.34475776520367 96.2793417094415 36.51163925397357 H 0.0 **** 0.06
34376 C 135.92475795812572 212.88193197940015 138.53521862073768 C 0.0 **** -0.24
34377 H 136.5797056284306 212.88761046267763 139.40688165897024 H 0.0 **** 0.06
34378 H 134.88474060460874 212.8830644683109 138.8636067779463 H 0.0 **** 0.06
34379 H 136.11812933604978 211.98928605815007 137.94023298386958 H 0.0 **** 0.06
34380 H 136.11574646029766 213.76937995375442 137.9315294391791 H 0.0 **** 0.06
34381 C 52.09931984654406 56.111532771358895 144.11410320318635 C 0.0 **** -0.24
34382 H 52.444716111901755 55.078008502450245 144.07891581345416 H 0.0 **** 0.06
34383 H 51.99134461451882 56.49304560520494 143.09875920035927 H 0.0 **** 0.06
34384 H 52.82642469312975 56.71790349855303 144.65532334323632 H 0.0 **** 0.06
34385 H 51.137888545844646 56.156073861337575 144.62387771198848 H 0.0 **** 0.06
34386 C 95.14698100019235 173.9238581931927 211.95913169114704 C 0.0 **** -0.24
34387 H 94.52065941695601 174.6577529056048 212.46780151326556 H 0.0 **** 0.06
34388 H 96.13445010800378 174.3506900631309 211.78194968790496 H 0.0 **** 0.06
34389 H 94.69046674581354 173.6549484664847 211.00736890288513 H 0.0 **** 0.06
34390 H 95.24206905161178 173.03467624466606 212.58140160145587 H 0.0 **** 0.06
34391 C 117.35622255522458 107.03428626498123 185.54310812547422 C 0.0 **** -0.24
34392 H 117.44211132953296 106.68643801334144 184.5139570971072 H 0.0 **** 0.06
34393 H 117.49625211645724 106.19423003201621 186.22336277132004 H 0.0 **** 0.06
34394 H 116.36810499964082 107.46749134110257 185.69916965193826 H 0.0 **** 0.06
34395 H 118.11866533324553 107.78985257133252 185.73550802803112 H 0.0 **** 0.06
34396 C 52.226313859206854 55.49232811808071 104.24377287139303 C 0.0 **** -0.24
34397 H 51.65658568880275 55.682125076150626 105.15285155069411 H 0.0 **** 0.06
34398 H 52.761826263747636 56.39728016024583 103.95512530370767 H 0.0 **** 0.06
34399 H 51.54796202684116 55.200006681833244 103.44315993087027 H 0.0 **** 0.06
34400 H 52.941563865354766 54.68958744717101 104.42526114752489 H 0.0 **** 0.06
34401 C 79.70910224649394 87.62534892993138 28.95398344347022 C 0.0 **** -0.24
34402 H 79.2999274249215 87.09353434784201 28.094786516938896 H 0.0 **** 0.06
34403 H 80.79722056980192 87.63503230452137 28.889285016693805 H 0.0 **** 0.06
34404 H 79.40229852290885 87.12302458964949 29.871174188160623 H 0.0 **** 0.06
34405 H 79.33649214383514 88.65000026704475 28.958510772560558 H 0.0 **** 0.06
34406 C 121.74035974024916 165.7823713589281 212.57819748990005 C 0.0 **** -0.24
34407 H 121.80118538265135 166.61876195254706 213.27471895955173 H 0.0 **** 0.06
34408 H 120.92130919985105 165.1248211138116 212.87159320276945 H 0.0 **** 0.06
34409 H 122.67721169548237 165.22704565926423 212.59551478484275 H 0.0 **** 0.06
34410 H 121.5601156720203 166.16128786448598 211.57165215414398 H 0.0 **** 0.06
34411 C 184.61085146837956 81.57630238151683 84.16835976810181 C 0.0 **** -0.24
34412 H 183.90893643665407 81.58176611412551 83.33357380894661 H 0.0 **** 0.06
34413 H 184.8514964762075 82.60159062529613 84.44657031307743 H 0.0 **** 0.06
34414 H 185.52174532122308 81.05589418875684 83.87273697508049 H 0.0 **** 0.06
34415 H 184.16044526536922 81.0644213507531 85.01831634695326 H 0.0 **** 0.06
34416 C 200.9166988842772 41.404517431342896 129.57745319489658 C 0.0 **** -0.24
34417 H 199.8396267114021 41.24727460534608 129.51903772794174 H 0.0 **** 0.06
34418 H 201.3848165012758 40.53672626175687 130.04425031686537 H 0.0 **** 0.06
34419 H 201.12181876656587 42.292905768506444 130.1739748765928 H 0.0 **** 0.06
34420 H 201.31917258477307 41.53884158751218 128.57342078593138 H 0.0 **** 0.06
34421 C 146.32407116699 43.99088955349333 186.36091788752663 C 0.0 **** -0.24
34422 H 145.54779620273342 43.96173754919073 185.59581299952566 H 0.0 **** 0.06
34423 H 146.75133070860744 44.992210903281205 186.40602842322824 H 0.0 **** 0.06
34424 H 147.1042391506544 43.27203332319948 186.11370593910166 H 0.0 **** 0.06
34425 H 145.8889521625855 43.73648009899787 187.32786795557936 H 0.0 **** 0.06
34426 C 188.6047893657642 178.25788189364744 206.20788201312033 C 0.0 **** -0.24
34427 H 189.33303125691444 178.9931361684147 205.86485133724602 H 0.0 **** 0.06
34428 H 187.6570127589649 178.41894226414456 205.69339274094966 H 0.0 **** 0.06
34429 H 188.45727163335653 178.36593834721893 207.28247424254772 H 0.0 **** 0.06
34430 H 188.97098215223917 177.2551658398017 205.98957608154865 H 0.0 **** 0.06
34431 C 2.8797418519208335 37.413599619249695 176.27271904824943 C 0.0 **** -0.24
34432 H 2.37246970202348 37.93453796941408 177.08546277012388 H 0.0 **** 0.06
34433 H 3.767650546667163 36.91400051448986 176.65949160676757 H 0.0 **** 0.06
34434 H 3.1707736239759257 38.13220411053028 175.5070126962524 H 0.0 **** 0.06
34435 H 2.205511046198538 36.673912039128766 175.84044801147158 H 0.0 **** 0.06
34436 C 133.2979384319978 131.14043621925248 30.17747469677755 C 0.0 **** -0.24
34437 H 133.9803025827536 130.57905734562797 29.539934856621983 H 0.0 **** 0.06
34438 H 132.52965049682592 131.61062266913365 29.56347673943418 H 0.0 **** 0.06
34439 H 133.85309637132195 131.9075682713446 30.716011780169538 H 0.0 **** 0.06
34440 H 132.82819372545111 130.46338063057328 30.8911782646843 H 0.0 **** 0.06
34441 C 44.54475665941335 63.249687543992536 28.390310640771503 C 0.0 **** -0.24
34442 H 43.872906649130755 62.54565769380331 27.899482088367307 H 0.0 **** 0.06
34443 H 45.394560120312676 63.45450538847379 27.739387557565877 H 0.0 **** 0.06
34444 H 44.899643107596305 62.81943534960257 29.32697909864585 H 0.0 **** 0.06
34445 H 44.01180872624121 64.17746475705182 28.59577124949655 H 0.0 **** 0.06
34446 C 45.79471645872218 1.0045804158683822 69.6095241525327 C 0.0 **** -0.24
34447 H 45.58355926139964 0.6124745668205023 70.60411641493324 H 0.0 **** 0.06
34448 H 45.31196821187973 0.3744002947386633 68.86203214884827 H 0.0 **** 0.06
34449 H 46.871330977033196 1.008732070051984 69.44225771148618 H 0.0 **** 0.06
34450 H 45.410326347522144 2.0210390754232748 69.53029563777422 H 0.0 **** 0.06
34451 C 1.5150765814433953 108.97753319622286 62.306479046702236 C 0.0 **** -0.24
34452 H 1.2764469276584904 110.04151108416669 62.31548434684572 H 0.0 **** 0.06
34453 H 2.53540770143659 108.83727285906774 61.94774014058622 H 0.0 **** 0.06
34454 H 0.8231504746223948 108.45588325351771 61.646335340862564 H 0.0 **** 0.06
34455 H 1.4260427911131686 108.57697817388593 63.31675911221009 H 0.0 **** 0.06
34456 C 196.2550484569908 5.305572001601519 190.5399431891813 C 0.0 **** -0.24
34457 H 195.41066636441093 4.823408375553157 190.048953138849 H 0.0 **** 0.06
34458 H 196.19408979645976 5.138437516478632 191.6159553940957 H 0.0 **** 0.06
34459 H 196.2306843099179 6.376136792590614 190.33627297860383 H 0.0 **** 0.06
34460 H 197.18600863811938 4.884820684373182 190.15898962319912 H 0.0 **** 0.06
34461 C 13.445421982025564 206.72928142433193 161.88355601411462 C 0.0 **** -0.24
34462 H 13.652003446062281 205.88256797592902 162.5377139169443 H 0.0 **** 0.06
34463 H 14.331235999704106 207.36173202710734 161.81637033143392 H 0.0 **** 0.06
34464 H 12.615575820218652 207.30886332527976 162.28933098046062 H 0.0 **** 0.06
34465 H 13.183136792698463 206.36515670386007 160.89009901552902 H 0.0 **** 0.06
34466 C 103.7292692047717 140.7567149644625 85.50956361986489 C 0.0 **** -0.24
34467 H 104.30598472131305 141.6538350361904 85.73646655116623 H 0.0 **** 0.06
34468 H 103.96288514324192 140.4205703316428 84.49852972139347 H 0.0 **** 0.06
34469 H 102.66464703299147 140.98094837943182 85.58128639318822 H 0.0 **** 0.06
34470 H 103.98355992154029 139.97150611058515 86.22197181371182 H 0.0 **** 0.06
34471 C 37.8861697019359 138.11427026439196 28.824429197070742 C 0.0 **** -0.24
34472 H 38.75210317350303 138.4158328724434 29.415130796980833 H 0.0 **** 0.06
34473 H 37.863068765164286 138.68788345679008 27.897013208751673 H 0.0 **** 0.06
34474 H 36.97568281092174 138.30355813913354 29.391365548652118 H 0.0 **** 0.06
34475 H 37.957180424867886 137.05129998502133 28.593496734993835 H 0.0 **** 0.06
34476 C 42.834582587589836 3.109178062280492 28.67337585396504 C 0.0 **** -0.24
34477 H 42.698453122423984 2.8672933928179845 29.727908797313063 H 0.0 **** 0.06
34478 H 43.80255042972635 2.7346631595857716 28.33811922594387 H 0.0 **** 0.06
34479 H 42.797323478580324 4.190677128018663 28.54189327000421 H 0.0 **** 0.06
34480 H 42.04145397310785 2.6442022376928023 28.088880687559424 H 0.0 **** 0.06
34481 C 160.8052888118407 94.41836988149942 155.79885534825064 C 0.0 **** -0.24
34482 H 160.1089383562051 95.18731042857104 156.13520135313127 H 0.0 **** 0.06
34483 H 160.62676433099594 93.49895895523537 156.35610007761068 H 0.0 **** 0.06
34484 H 161.82850012433914 94.75529208347194 155.96938452794086 H 0.0 **** 0.06
34485 H 160.6568158742032 94.23433795220774 154.735089790247 H 0.0 **** 0.06
34486 C 208.3819390081414 37.471792189064445 166.86454147158963 C 0.0 **** -0.24
34487 H 208.0361295003617 36.59838202476533 167.4163925263859 H 0.0 **** 0.06
34488 H 208.4718705913707 38.31902820999795 167.54475951027072 H 0.0 **** 0.06
34489 H 207.66702723836084 37.711256628191904 166.0777180664768 H 0.0 **** 0.06
34490 H 209.35423028602833 37.25891958831477 166.41854025126173 H 0.0 **** 0.06
34491 C 1.297051473990038 26.95001616567646 147.6737967995589 C 0.0 **** -0.24
34492 H 1.2408234666281146 27.902930506343864 147.1468425126276 H 0.0 **** 0.06
34493 H 2.250708928683416 26.469947743372302 147.45482213921497 H 0.0 **** 0.06
34494 H 0.48210085018503435 26.30530313899112 147.34523976546274 H 0.0 **** 0.06
34495 H 1.214060206133162 27.122470181403656 148.74710253756416 H 0.0 **** 0.06
34496 C 213.1117197752379 177.34761099506045 116.86553835392812 C 0.0 **** -0.24
34497 H 213.48531085960087 176.94794844903117 117.80825977954606 H 0.0 **** 0.06
34498 H 212.43664582803288 178.17934315852497 117.06612475563423 H 0.0 **** 0.06
34499 H 212.577236189874 176.56589845221623 116.32632325418723 H 0.0 **** 0.06
34500 H 213.95063540413685 177.69710786648332 116.26197586592633 H 0.0 **** 0.06
34501 C 183.2718053649661 84.77730281524464 183.6458163917341 C 0.0 **** -0.24
34502 H 182.3199058423263 85.00609635762322 184.12568716720168 H 0.0 **** 0.06
34503 H 184.09022726867005 85.05490218778266 184.31188271991903 H 0.0 **** 0.06
34504 H 183.3536298475097 85.34022224634941 182.71594241795142 H 0.0 **** 0.06
34505 H 183.3232072367778 83.70971392393676 183.43147566473644 H 0.0 **** 0.06
34506 C 51.29270610040699 170.72270352468018 164.9930850823993 C 0.0 **** -0.24
34507 H 51.92202422386106 170.57702682690615 164.11490848177164 H 0.0 **** 0.06
34508 H 50.67193879517376 171.60762128213958 164.85204021109496 H 0.0 **** 0.06
34509 H 51.92217352389832 170.85543228571396 165.8723370119103 H 0.0 **** 0.06
34510 H 50.65555653532779 169.84917847878995 165.1306407424465 H 0.0 **** 0.06
34511 C 2.056992637411696 199.60770880123508 42.73866047664363 C 0.0 **** -0.24
34512 H 2.3425726161799503 199.02307535393592 43.61253456719574 H 0.0 **** 0.06
34513 H 1.155370299067215 199.18424443378146 42.29577874297857 H 0.0 **** 0.06
34514 H 2.8652530513350314 199.58616772443804 42.00785802920193 H 0.0 **** 0.06
34515 H 1.8653305934383866 200.63859973870436 43.03811947265618 H 0.0 **** 0.06
34516 C 185.53256806087086 171.09242901775423 58.78566862842597 C 0.0 **** -0.24
34517 H 186.23695825468596 171.91804302564395 58.88172113135634 H 0.0 **** 0.06
34518 H 185.94848166969206 170.20351584966707 59.26199143808208 H 0.0 **** 0.06
34519 H 185.35321377382007 170.88923172132885 57.730196210720194 H 0.0 **** 0.06
34520 H 184.5921298356548 171.35831341069255 59.269933635125824 H 0.0 **** 0.06
34521 C 53.027965489187 78.81886320851436 155.45787181092612 C 0.0 **** -0.24
34522 H 53.780902053972554 78.08618925312368 155.74823975005114 H 0.0 **** 0.06
34523 H 52.31577712642941 78.35699963599228 154.77299084445156 H 0.0 **** 0.06
34524 H 53.51252599938205 79.6610107849487 154.96384882808178 H 0.0 **** 0.06
34525 H 52.50199022840796 79.17108174075793 156.3451723607336 H 0.0 **** 0.06
34526 C 123.13738817019039 126.42044201726593 111.98911047592127 C 0.0 **** -0.24
34527 H 122.5964381247655 125.48105363152764 112.10789037372525 H 0.0 **** 0.06
34528 H 123.9513074037635 126.46353625228521 112.71400738825527 H 0.0 **** 0.06
34529 H 122.45682519017991 127.25487161852864 112.15668254265576 H 0.0 **** 0.06
34530 H 123.54503018363481 126.47975298854719 110.97997751483639 H 0.0 **** 0.06
34531 C 206.00518877327272 143.18850312822025 67.554022006521 C 0.0 **** -0.24
34532 H 206.19761362553916 142.5431619825456 66.69718969446029 H 0.0 **** 0.06
34533 H 206.8131553022127 143.08150597874345 68.27812893441603 H 0.0 **** 0.06
34534 H 205.06052097008754 142.9038741288702 68.01815477130697 H 0.0 **** 0.06
34535 H 205.9482729076841 144.22557445225 67.22186119235255 H 0.0 **** 0.06
34536 C 209.3095472692052 48.28357680013863 157.68577232330676 C 0.0 **** -0.24
34537 H 209.63562860403647 48.974756532393826 156.90824953528715 H 0.0 **** 0.06
34538 H 209.70329417948534 48.60795032800479 158.64845103561245 H 0.0 **** 0.06
34539 H 209.6805303159286 47.28351226616047 157.45995900540026 H 0.0 **** 0.06
34540 H 208.22044182208452 48.26724108504396 157.72371441032112 H 0.0 **** 0.06
34541 C 148.67888710004655 157.55799895503964 124.88206980289984 C 0.0 **** -0.24
34542 H 148.424944492487 157.67160597222266 123.8283142671388 H 0.0 **** 0.06
34543 H 147.7630591659297 157.5073478946635 125.47253134539623 H 0.0 **** 0.06
34544 H 149.27313633587607 158.4122512697491 125.20638749358183 H 0.0 **** 0.06
34545 H 149.2533427839436 156.64201651124426 125.0216476427676 H 0.0 **** 0.06
34546 C 82.00701309195688 11.486241349001375 141.25545151266687 C 0.0 **** -0.24
34547 H 82.29117596290325 12.349677144773025 141.85659726727374 H 0.0 **** 0.06
34548 H 81.3739050064537 11.811996719234045 140.42925132384153 H 0.0 **** 0.06
34549 H 81.4594070310057 10.776361568424278 141.87547122033266 H 0.0 **** 0.06
34550 H 82.90280626430501 11.00821772884018 140.85961045895863 H 0.0 **** 0.06
34551 C 176.9207520196064 38.38448083538104 181.57737263536683 C 0.0 **** -0.24
34552 H 176.1139281954067 39.0360367865722 181.91336713022056 H 0.0 **** 0.06
34553 H 177.04268800230636 37.56369978153114 182.28428579648948 H 0.0 **** 0.06
34554 H 177.84690323300123 38.955177336558066 181.51827483098293 H 0.0 **** 0.06
34555 H 176.67651209974636 37.98335643168403 180.59370388425714 H 0.0 **** 0.06
34556 C 4.827823905346449 58.23584181330881 161.1933361383239 C 0.0 **** -0.24
34557 H 4.0500233772271415 57.82792574233048 161.83857791272987 H 0.0 **** 0.06
34558 H 5.772211136738036 58.26233543940634 161.73612704297838 H 0.0 **** 0.06
34559 H 4.5547503955778055 59.24713724335152 160.89026095669485 H 0.0 **** 0.06
34560 H 4.933611971904291 57.60750152831298 160.30945690825035 H 0.0 **** 0.06
34561 C 131.66595168695943 154.02377169002273 17.862116535030083 C 0.0 **** -0.24
34562 H 131.26802683759666 153.0988637911496 18.280458908570424 H 0.0 **** 0.06
34563 H 130.84458926995734 154.70814704212876 17.648965650132524 H 0.0 **** 0.06
34564 H 132.20544134365826 153.8029551268438 16.94131249214381 H 0.0 **** 0.06
34565 H 132.34516433543627 154.48309229714374 18.580287053920443 H 0.0 **** 0.06
34566 C 201.7626257755029 70.07891061467156 114.64534530521944 C 0.0 **** -0.24
34567 H 202.68197112634317 70.00968347161559 115.22654910755706 H 0.0 **** 0.06
34568 H 200.92317060362993 69.74226247098905 115.25370389904383 H 0.0 **** 0.06
34569 H 201.844310270645 69.44947030482258 113.75891556456885 H 0.0 **** 0.06
34570 H 201.6000140662378 71.11334013047788 114.34258608354757 H 0.0 **** 0.06
34571 C 86.41934959500718 40.541047362454876 36.0847583337673 C 0.0 **** -0.24
34572 H 86.15655637675773 41.433945586323546 35.51759467024979 H 0.0 **** 0.06
34573 H 85.53933424302885 40.17541519536874 36.61478781531753 H 0.0 **** 0.06
34574 H 87.20068076060626 40.784574199760456 36.80414655461101 H 0.0 **** 0.06
34575 H 86.7795234766477 39.77028043906594 35.4030521883476 H 0.0 **** 0.06
34576 C 115.19273480779385 100.65207152441478 191.2942137453973 C 0.0 **** -0.24
34577 H 115.7271410554382 101.27156596237673 192.01505128269673 H 0.0 **** 0.06
34578 H 115.30458365793167 101.0771716452149 190.29667885279358 H 0.0 **** 0.06
34579 H 114.1361952539521 100.61720025783545 191.5582748891529 H 0.0 **** 0.06
34580 H 115.60386528714646 99.64219699626322 191.30797308034408 H 0.0 **** 0.06
34581 C 94.31064168134931 64.39676612930195 170.09359781561278 C 0.0 **** -0.24
34582 H 93.92492896020973 65.32168361740234 169.66554704412889 H 0.0 **** 0.06
34583 H 95.1711319374973 64.61961164485471 170.72383469042097 H 0.0 **** 0.06
34584 H 94.61197862453277 63.72360760123081 169.2909759991935 H 0.0 **** 0.06
34585 H 93.5333932104886 63.92264174059555 170.69245757026474 H 0.0 **** 0.06
34586 C 76.39538240725555 73.83218401237195 45.28316238873367 C 0.0 **** -0.24
34587 H 75.78246081448994 74.73390996736737 45.28991310492785 H 0.0 **** 0.06
34588 H 76.59336579682714 73.53668745720819 44.25194101045048 H 0.0 **** 0.06
34589 H 75.86640292211725 73.0302954913472 45.796299415063004 H 0.0 **** 0.06
34590 H 77.33828678223874 74.03094095001705 45.79265837203144 H 0.0 **** 0.06
34591 C 42.71747890943362 17.280454400467875 193.26717485635447 C 0.0 **** -0.24
34592 H 42.45887508992695 16.241282050812828 193.06460135455126 H 0.0 **** 0.06
34593 H 42.05868252807602 17.936729679002724 192.69795852333817 H 0.0 **** 0.06
34594 H 43.75226142637672 17.460947176057175 192.9756999161466 H 0.0 **** 0.06
34595 H 42.600120784651494 17.481894528171097 194.33245702572248 H 0.0 **** 0.06
34596 C 164.43631727733845 24.706820954857392 100.91331622026168 C 0.0 **** -0.24
34597 H 164.68845163034922 24.202599449670174 101.84650327957205 H 0.0 **** 0.06
34598 H 164.9883286195455 25.645099248465726 100.84677689101197 H 0.0 **** 0.06
34599 H 163.3659233806618 24.91242268568925 100.89080004808189 H 0.0 **** 0.06
34600 H 164.70150626620224 24.067296107286154 100.07114942325795 H 0.0 **** 0.06
34601 C 77.58431142356807 181.57264007655596 52.431089216806384 C 0.0 **** -0.24
34602 H 77.4668134434234 182.49865267373434 51.867982622871494 H 0.0 **** 0.06
34603 H 76.6159308537305 181.08270750391026 52.529492836154304 H 0.0 **** 0.06
34604 H 77.98118071312052 181.79860769055037 53.42082581904937 H 0.0 **** 0.06
34605 H 78.27455014260056 180.9132130017896 51.90526740791479 H 0.0 **** 0.06
34606 C 171.58263459311996 111.0766518934219 27.299071178918794 C 0.0 **** -0.24
34607 H 171.76720739756115 112.06596910486964 26.878818285860817 H 0.0 **** 0.06
34608 H 170.5093985038671 110.93381206588877 27.43159757577655 H 0.0 **** 0.06
34609 H 172.08316936487068 110.99212256821262 28.263370335196896 H 0.0 **** 0.06
34610 H 171.969064793366 110.3165646920285 26.620869686072695 H 0.0 **** 0.06
34611 C 161.03815762203783 92.25190997662402 168.17291545128504 C 0.0 **** -0.24
34612 H 162.09869399475568 92.30781234331029 168.41989252925663 H 0.0 **** 0.06
34613 H 160.47712786460653 92.91567365697851 168.8319393892369 H 0.0 **** 0.06
34614 H 160.68803808010594 91.22836726788255 168.30339821618855 H 0.0 **** 0.06
34615 H 160.89046188300065 92.55709466124513 167.13762689677978 H 0.0 **** 0.06
34616 C 97.86305159650817 95.2680736330801 51.50913819131296 C 0.0 **** -0.24
34617 H 97.541712441843 94.22780173665465 51.55781735134008 H 0.0 **** 0.06
34618 H 97.76172750582691 95.72632192166371 52.492530309455475 H 0.0 **** 0.06
34619 H 97.24435840704518 95.80560294777378 50.79050608053416 H 0.0 **** 0.06
34620 H 98.90543383846102 95.31099288304624 51.193360838467896 H 0.0 **** 0.06
34621 C 189.5504604586406 145.89069658095218 30.209102117397606 C 0.0 **** -0.24
34622 H 188.59506378258322 145.6663953441825 30.68246906535728 H 0.0 **** 0.06
34623 H 190.2269726646197 145.04485819760248 30.334584442308312 H 0.0 **** 0.06
34624 H 189.9860213357878 146.7765820763571 30.672019777244543 H 0.0 **** 0.06
34625 H 189.394135594417 146.0762921087216 29.146297347352686 H 0.0 **** 0.06
34626 C 193.97073162300018 18.71143884452856 188.61273690912867 C 0.0 **** -0.24
34627 H 193.77328909605194 18.084198631778463 189.48266352619996 H 0.0 **** 0.06
34628 H 193.95399900267032 19.759942966001773 188.91035455859668 H 0.0 **** 0.06
34629 H 193.20582556931114 18.535408851599115 187.856291729198 H 0.0 **** 0.06
34630 H 194.95074695254425 18.46462361996697 188.20291334246355 H 0.0 **** 0.06
34631 C 162.90129919100465 35.166335926469316 3.4603537347090594 C 0.0 **** -0.24
34632 H 162.62711888907705 36.208754979983865 3.6202562154248312 H 0.0 **** 0.06
34633 H 162.9513997989169 34.65260027681224 4.419830534763946 H 0.0 **** 0.06
34634 H 163.87373723274246 35.11830018385619 2.970380309280017 H 0.0 **** 0.06
34635 H 162.15264467197264 34.68742387751976 2.8295694682307726 H 0.0 **** 0.06
34636 C 7.058765079972119 129.8812194813413 187.5918324423487 C 0.0 **** -0.24
34637 H 6.13044624184711 129.3528710832702 187.3734331507417 H 0.0 **** 0.06
34638 H 7.671582670264897 129.92690543125985 186.6910213919839 H 0.0 **** 0.06
34639 H 7.6015566689302005 129.3526420892009 188.375003787452 H 0.0 **** 0.06
34640 H 6.830575631515757 130.8926356276499 187.92747076585175 H 0.0 **** 0.06
34641 C 203.160746055522 101.45371931452111 100.9555427688811 C 0.0 **** -0.24
34642 H 203.90392383014407 100.66070882858118 101.0416781829605 H 0.0 **** 0.06
34643 H 202.23429801115074 101.04046037017251 100.55674306586461 H 0.0 **** 0.06
34644 H 203.53272591035028 102.22781887476653 100.28346389315077 H 0.0 **** 0.06
34645 H 202.97368352912656 101.8854142272345 101.93885007214477 H 0.0 **** 0.06
34646 C 107.4447243071749 82.50370525650368 93.63004332120086 C 0.0 **** -0.24
34647 H 107.9700855750716 82.96797330478506 92.79524223114599 H 0.0 **** 0.06
34648 H 107.93173189833881 81.56265908565342 93.88653670208394 H 0.0 **** 0.06
34649 H 106.40986730081367 82.3111146469011 93.346117311209 H 0.0 **** 0.06
34650 H 107.46770597882109 83.17165918954436 94.49061726270325 H 0.0 **** 0.06
34651 C 98.75596431419818 147.28585535938282 193.1709879333597 C 0.0 **** -0.24
34652 H 97.92048960010787 146.68133901226554 193.5226071986937 H 0.0 **** 0.06
34653 H 99.19985412432978 147.81781659173305 194.0127314976574 H 0.0 **** 0.06
34654 H 98.39835091917597 148.00598274154936 192.43429371712534 H 0.0 **** 0.06
34655 H 99.50430144336066 146.6390928345678 192.7135429583273 H 0.0 **** 0.06
34656 C 199.39425260351337 85.69368370502508 118.96292986361685 C 0.0 **** -0.24
34657 H 199.7098476350041 86.37823760282328 118.17568093753921 H 0.0 **** 0.06
34658 H 198.86800671180671 84.84803910453195 118.51916909187558 H 0.0 **** 0.06
34659 H 198.72820209133684 86.21480785955924 119.65119760299778 H 0.0 **** 0.06
34660 H 200.269014724913 85.33451814202851 119.50497457081734 H 0.0 **** 0.06
34661 C 1.0837074911127047 43.51842315748206 106.92517879985053 C 0.0 **** -0.24
34662 H 0.13939372309801001 43.20787338944689 106.47776457348738 H 0.0 **** 0.06
34663 H 1.6940036701244878 42.639097550138956 107.13141940845952 H 0.0 **** 0.06
34664 H 0.8864811491760349 44.051606736113115 107.85532404788086 H 0.0 **** 0.06
34665 H 1.6138865409971856 44.174575859279514 106.23406812617452 H 0.0 **** 0.06
34666 C 135.52254399360112 160.38452077886905 2.9178660627464623 C 0.0 **** -0.24
34667 H 134.59253499881788 160.49328614895398 2.3605380731495558 H 0.0 **** 0.06
34668 H 136.2568426852979 159.86572394313134 2.300710952349249 H 0.0 **** 0.06
34669 H 135.33782378325196 159.80814615244284 3.8248070109835126 H 0.0 **** 0.06
34670 H 135.9042054519952 161.3697343136609 3.185157949697839 H 0.0 **** 0.06
34671 C 167.9388224026552 131.09820269029342 163.80391587002612 C 0.0 **** -0.24
34672 H 166.87954199925093 130.85346952893508 163.88642559545644 H 0.0 **** 0.06
34673 H 168.53171265239055 130.29594638842605 164.24415004491595 H 0.0 **** 0.06
34674 H 168.13815068319866 132.02982719193722 164.3330322589219 H 0.0 **** 0.06
34675 H 168.20425671357998 131.21227693230048 162.75335372793404 H 0.0 **** 0.06
34676 C 124.7151880709831 44.688834328666886 175.05514240165905 C 0.0 **** -0.24
34677 H 125.16217100223729 45.682568796786725 175.07223608713076 H 0.0 **** 0.06
34678 H 124.53486648690831 44.35343835421419 176.07695198285538 H 0.0 **** 0.06
34679 H 125.3925564113621 43.99429535089301 174.55867400434886 H 0.0 **** 0.06
34680 H 123.77024945309277 44.72545110365405 174.51268377300966 H 0.0 **** 0.06
34681 C 170.02365810404882 207.46497611983546 55.21854206461727 C 0.0 **** -0.24
34682 H 169.28604868615687 208.04392870646993 55.77574975783601 H 0.0 **** 0.06
34683 H 170.89344643293333 207.28251694984 55.84996114719395 H 0.0 **** 0.06
34684 H 170.32786423953718 208.0221126087305 54.3322764713939 H 0.0 **** 0.06
34685 H 169.58547142607165 206.5136767477218 54.9173310591692 H 0.0 **** 0.06
34686 C 110.31740657334613 149.5045681811822 27.227134447280946 C 0.0 **** -0.24
34687 H 109.62416373008277 149.67695089255437 28.051096653090895 H 0.0 **** 0.06
34688 H 110.63233411793458 150.46142244060854 26.810846441729495 H 0.0 **** 0.06
34689 H 109.82174661299312 148.9175879558615 26.453211599880774 H 0.0 **** 0.06
34690 H 111.18849822525364 148.9615332420359 27.593664833895417 H 0.0 **** 0.06
34691 C 75.45245570160957 38.081306260890415 117.43827608425228 C 0.0 **** -0.24
34692 H 75.26826217454614 39.0993604996886 117.78152446290322 H 0.0 **** 0.06
34693 H 75.1658214896285 37.37710332587619 118.21904569433993 H 0.0 **** 0.06
34694 H 76.51192469726526 37.96085589325651 117.21260754509633 H 0.0 **** 0.06
34695 H 74.86619269345702 37.88821849822796 116.54042257653042 H 0.0 **** 0.06
34696 C 202.0138069902423 17.940689817163047 58.458213773076125 C 0.0 **** -0.24
34697 H 202.74740862484433 17.387650948793464 59.046191507532114 H 0.0 **** 0.06
34698 H 201.0618115547644 17.95906732014214 58.98935321401029 H 0.0 **** 0.06
34699 H 201.8816279886113 17.453330592754412 57.49241263992076 H 0.0 **** 0.06
34700 H 202.36532999507108 18.960467049966383 58.30664833573013 H 0.0 **** 0.06
34701 C 153.97966176067467 130.4228189129504 122.55279949612327 C 0.0 **** -0.24
34702 H 153.16881975342045 131.14581607419217 122.46268576637942 H 0.0 **** 0.06
34703 H 154.28105869011233 130.3449131981656 123.59852018867332 H 0.0 **** 0.06
34704 H 154.82757547264117 130.75096243086244 121.95253015158391 H 0.0 **** 0.06
34705 H 153.63848632625644 129.4494075882128 122.20003915677216 H 0.0 **** 0.06
34706 C 70.82001164439576 54.14703485873747 206.1934228132233 C 0.0 **** -0.24
34707 H 71.90195261455871 54.17736874819093 206.32495509445837 H 0.0 **** 0.06
34708 H 70.54515107090559 54.72506972105096 205.31039363931916 H 0.0 **** 0.06
34709 H 70.33574658687935 54.57188331760558 207.07164217466226 H 0.0 **** 0.06
34710 H 70.49820469406673 53.113707691420075 206.06529638136723 H 0.0 **** 0.06
34711 C 158.68431397530355 92.80649013237917 75.59210444738534 C 0.0 **** -0.24
34712 H 157.71520348171066 92.35156709245098 75.79588130580976 H 0.0 **** 0.06
34713 H 159.08115128399243 92.41268539340626 74.65612788607194 H 0.0 **** 0.06
34714 H 159.37186568335528 92.57512580380182 76.4049391867178 H 0.0 **** 0.06
34715 H 158.56789171200649 93.88735238365655 75.51115513256627 H 0.0 **** 0.06
34716 C 191.0257961561864 44.539661799955525 210.7308542670135 C 0.0 **** -0.24
34717 H 191.31161662572958 44.148291676345195 211.70666839112616 H 0.0 **** 0.06
34718 H 190.01368005932977 44.213775979417846 210.490748920764 H 0.0 **** 0.06
34719 H 191.71707903700718 44.16808221264759 209.97423102453484 H 0.0 **** 0.06
34720 H 191.0624332738451 45.6290932078588 210.751688728998 H 0.0 **** 0.06
34721 C 140.92051387082785 44.944250578100565 61.86336349604501 C 0.0 **** -0.24
34722 H 140.4858584434894 45.27835351109944 62.80543516285371 H 0.0 **** 0.06
34723 H 141.66890418683425 45.66550045221399 61.533089803260395 H 0.0 **** 0.06
34724 H 140.13574814466574 44.86381359632068 61.1104439767585 H 0.0 **** 0.06
34725 H 141.3906730416508 43.97127421502458 62.00379311059248 H 0.0 **** 0.06
34726 C 76.94710902009712 53.81425075377557 66.57734863282707 C 0.0 **** -0.24
34727 H 76.99454618979433 54.138891285688416 65.5383667465237 H 0.0 **** 0.06
34728 H 76.32815612284861 52.92024899990933 66.65056273629904 H 0.0 **** 0.06
34729 H 76.5144576879776 54.60806201143528 67.18634506167035 H 0.0 **** 0.06
34730 H 77.95339331922781 53.59007808462886 66.93345632304073 H 0.0 **** 0.06
34731 C 127.10119777710845 64.45633451775561 0.3391827914878007 C 0.0 **** -0.24
34732 H 127.65816884931662 63.58844007679468 -0.013324788907532081 H 0.0 **** 0.06
34733 H 126.6773630624903 64.24214764614409 1.3209110001625533 H 0.0 **** 0.06
34734 H 126.2975738869349 64.6819998355222 -0.3624481369550665 H 0.0 **** 0.06
34735 H 127.77117278245397 65.31357036501933 0.41133779823881156 H 0.0 **** 0.06
34736 C 141.07803821206323 211.74695913485726 145.16293873970596 C 0.0 **** -0.24
34737 H 141.01835984835532 212.19900700026955 144.1728501788562 H 0.0 **** 0.06
34738 H 141.20038204230713 212.52857575978814 145.9118389683552 H 0.0 **** 0.06
34739 H 141.93085739820037 211.06899040425762 145.20123988777277 H 0.0 **** 0.06
34740 H 140.16228026717306 211.19032999704734 145.3631699395891 H 0.0 **** 0.06
34741 C 127.54563369831625 5.73587372390341 186.654159532317 C 0.0 **** -0.24
34742 H 127.58948715314192 6.512321897701213 187.41713936478146 H 0.0 **** 0.06
34743 H 127.39682822992766 4.766425057661607 187.13007586844316 H 0.0 **** 0.06
34744 H 128.48038219742455 5.725461689564156 186.09294123082233 H 0.0 **** 0.06
34745 H 126.71754955267876 5.939059409732181 185.97635326713674 H 0.0 **** 0.06
34746 C 180.33832175879246 84.26080413996503 30.81607298987194 C 0.0 **** -0.24
34747 H 180.32704109794733 84.53004200786545 31.87245022429657 H 0.0 **** 0.06
34748 H 180.71219920709905 83.2422280121471 30.704935740982222 H 0.0 **** 0.06
34749 H 180.9871597290662 84.94824568340216 30.273015390978657 H 0.0 **** 0.06
34750 H 179.32651154463034 84.32251482337843 30.415241328245685 H 0.0 **** 0.06
34751 C 206.79168409617108 128.07685969922937 1.0463893666199908 C 0.0 **** -0.24
34752 H 207.67797465199865 128.31686583966763 0.4589906598725122 H 0.0 **** 0.06
34753 H 206.89350760756827 128.49899803725918 2.0458173636628203 H 0.0 **** 0.06
34754 H 206.68514074681661 126.99477498866791 1.117088137550894 H 0.0 **** 0.06
34755 H 205.91013758708692 128.49773121227452 0.5616285204894211 H 0.0 **** 0.06
34756 C 63.505790034530406 171.2523068248346 195.842084124836 C 0.0 **** -0.24
34757 H 62.591422825650994 170.8836186695655 195.3772134028472 H 0.0 **** 0.06
34758 H 63.25128312474587 171.90686109245362 196.67499111887946 H 0.0 **** 0.06
34759 H 64.0879480413551 171.8080298687646 195.1065957836846 H 0.0 **** 0.06
34760 H 64.09172982603698 170.40894857816866 196.20724102542295 H 0.0 **** 0.06
34761 C 52.802033457944674 13.611728107327963 67.11112390010652 C 0.0 **** -0.24
34762 H 53.80318611314243 13.364472666472267 66.75606296382011 H 0.0 **** 0.06
34763 H 52.87179512965716 14.369279918664986 67.89253334472613 H 0.0 **** 0.06
34764 H 52.32827540063445 12.716631657885912 67.5130352961965 H 0.0 **** 0.06
34765 H 52.20817197015731 13.996862721708311 66.28268320492776 H 0.0 **** 0.06
34766 C 191.25753570447642 85.15607506747484 148.5822909058357 C 0.0 **** -0.24
34767 H 192.07446029654608 84.88310025038187 147.91432601453215 H 0.0 **** 0.06
34768 H 190.4237037537235 85.54408287910768 147.99591953969826 H 0.0 **** 0.06
34769 H 191.5984577120011 85.92167462096604 149.27975105331404 H 0.0 **** 0.06
34770 H 190.93345577814853 84.27706642139724 149.13800136186575 H 0.0 **** 0.06
34771 C 26.296472168984394 10.940548226476054 71.58045896554728 C 0.0 **** -0.24
34772 H 26.77992452009336 11.618393886059778 72.28380611965298 H 0.0 **** 0.06
34773 H 25.954970445883816 11.502437765258179 70.71065906360298 H 0.0 **** 0.06
34774 H 25.443669907167077 10.464224032654386 72.0645227088495 H 0.0 **** 0.06
34775 H 27.008205115542168 10.177371738359028 71.26488962985684 H 0.0 **** 0.06
34776 C 202.45982159988534 155.14136375737735 105.63278051121925 C 0.0 **** -0.24
34777 H 202.85482736250435 154.76566854335312 106.57716057562148 H 0.0 **** 0.06
34778 H 201.874144265298 156.04258644417877 105.81646741809892 H 0.0 **** 0.06
34779 H 201.8257453394594 154.38211675887413 105.17619272241727 H 0.0 **** 0.06
34780 H 203.28663214303612 155.37580279486372 104.96177841563521 H 0.0 **** 0.06
34781 C 55.6773949241865 57.3865609621497 174.53541306962674 C 0.0 **** -0.24
34782 H 55.55821259785071 58.33248956775674 175.06470013754176 H 0.0 **** 0.06
34783 H 56.45862530741249 57.48849994080712 173.78111757298544 H 0.0 **** 0.06
34784 H 54.73740852338477 57.12068195189539 174.0513923445267 H 0.0 **** 0.06
34785 H 55.95434167019138 56.606477954927016 175.24382122944724 H 0.0 **** 0.06
34786 C 88.96034509975642 66.68576732050951 22.38727699536753 C 0.0 **** -0.24
34787 H 89.54018506948957 66.11779353510383 21.65951568074553 H 0.0 **** 0.06
34788 H 89.63518744814893 67.14842469483577 23.107253446956577 H 0.0 **** 0.06
34789 H 88.27642736756842 66.01590386726818 22.908358202377883 H 0.0 **** 0.06
34790 H 88.39044135215075 67.45924798356455 21.872440594859427 H 0.0 **** 0.06
34791 C 191.81096572748925 122.67134330235002 75.5505023556082 C 0.0 **** -0.24
34792 H 192.73851513436318 123.21878323947205 75.71582246110871 H 0.0 **** 0.06
34793 H 191.70448890068795 121.89952233814618 76.3136184955709 H 0.0 **** 0.06
34794 H 191.8351163021558 122.20573770441 74.56486026719783 H 0.0 **** 0.06
34795 H 190.96779682270432 123.3591601353612 75.60797692201201 H 0.0 **** 0.06
34796 C 156.0733604453651 165.6722271025339 211.9619829070018 C 0.0 **** -0.24
34797 H 156.2509371123105 164.72099114045136 211.46088631159586 H 0.0 **** 0.06
34798 H 156.84340380300267 165.83367699672357 212.71707781117377 H 0.0 **** 0.06
34799 H 155.0934162715676 165.65318551360696 212.43959046763382 H 0.0 **** 0.06
34800 H 156.10602096721306 166.4797887011573 211.2309099390884 H 0.0 **** 0.06
34801 C 154.3676243061455 18.88238833481249 121.32727867357995 C 0.0 **** -0.24
34802 H 154.09723532907822 19.142740839643622 120.30341318950887 H 0.0 **** 0.06
34803 H 154.17459453621439 19.733869719979978 121.98036067996837 H 0.0 **** 0.06
34804 H 155.42533036776746 18.62450603251102 121.36918002633048 H 0.0 **** 0.06
34805 H 153.77190951525512 18.0310117832976 121.65558490554632 H 0.0 **** 0.06
34806 C 92.53133190979536 193.40062019777773 20.638893341803566 C 0.0 **** -0.24
34807 H 92.13403715046302 192.7331445718255 21.4025184280207 H 0.0 **** 0.06
34808 H 93.19060391331273 194.13383850584984 21.10426038707601 H 0.0 **** 0.06
34809 H 91.70851159571963 193.9154093556972 20.142961906650896 H 0.0 **** 0.06
34810 H 93.09215841175102 192.82129990920944 19.905103329050803 H 0.0 **** 0.06
34811 C 120.59877485550719 99.56295199758506 33.71641422808099 C 0.0 **** -0.24
34812 H 120.95723289299237 98.59279586840529 33.37166930132577 H 0.0 **** 0.06
34813 H 119.53636507537921 99.65893631342868 33.48880132305834 H 0.0 **** 0.06
34814 H 121.15243968672392 100.35493292583249 33.21058854006748 H 0.0 **** 0.06
34815 H 120.74948311163969 99.6448950901451 34.79265838320953 H 0.0 **** 0.06
34816 C 210.4208340778546 154.50714771954705 177.2066613653553 C 0.0 **** -0.24
34817 H 209.56582860497753 153.90731335370464 176.89703984185485 H 0.0 **** 0.06
34818 H 210.80916205991082 155.05558742719847 176.34887270260467 H 0.0 **** 0.06
34819 H 211.19816065913108 153.8535708910352 177.603255442249 H 0.0 **** 0.06
34820 H 210.10977874773536 155.21188915604432 177.9788124204556 H 0.0 **** 0.06
34821 C 181.3879550157564 195.77208436839945 182.41040577636352 C 0.0 **** -0.24
34822 H 182.25420750024062 196.10840182464378 182.97948953628966 H 0.0 **** 0.06
34823 H 180.47624962441543 196.11099611344412 182.90287532208578 H 0.0 **** 0.06
34824 H 181.3890602188266 194.68417788698423 182.35520272181313 H 0.0 **** 0.06
34825 H 181.4318333970328 196.18670635798145 181.40305656267435 H 0.0 **** 0.06
34826 C 130.23818533636347 157.4903075842485 184.23097040356743 C 0.0 **** -0.24
34827 H 129.72719679007747 158.2051295501667 183.58446794247993 H 0.0 **** 0.06
34828 H 130.61840083689236 158.00624843618397 185.11252434044553 H 0.0 **** 0.06
34829 H 131.06804707209562 157.03877420760392 183.68720276176649 H 0.0 **** 0.06
34830 H 129.53852193389542 156.71296284919498 184.53666699864905 H 0.0 **** 0.06
34831 C 138.90685607263674 12.10475937175977 6.792751561861962 C 0.0 **** -0.24
34832 H 138.81550108612277 11.019599507337489 6.843990992143517 H 0.0 **** 0.06
34833 H 138.0078171289984 12.564543173114885 7.204710288171441 H 0.0 **** 0.06
34834 H 139.0283746102785 12.41061135643804 5.754291682253324 H 0.0 **** 0.06
34835 H 139.77540935393637 12.423667601082457 7.369599798397331 H 0.0 **** 0.06
34836 C 122.89623452250505 12.442190297175046 30.428521704479138 C 0.0 **** -0.24
34837 H 122.08804176608739 11.755017225441236 30.180455675844627 H 0.0 **** 0.06
34838 H 123.81747997709157 11.879478472701663 30.581352858722056 H 0.0 **** 0.06
34839 H 122.64526096010674 12.983186731436433 31.341180060250153 H 0.0 **** 0.06
34840 H 123.03514893010357 13.151306753814765 29.612498559073572 H 0.0 **** 0.06
34841 C 201.94834205507044 132.7012947904987 148.90012292007282 C 0.0 **** -0.24
34842 H 201.0436988406184 132.10322641321636 149.00522282730128 H 0.0 **** 0.06
34843 H 201.6819600835094 133.70857425904921 148.57589476264752 H 0.0 **** 0.06
34844 H 202.60275522718604 132.2429267642308 148.15858378313067 H 0.0 **** 0.06
34845 H 202.4635107239186 132.75267820447039 149.85939041471715 H 0.0 **** 0.06
34846 C 135.75337660696727 98.35798594016337 53.3710550574462 C 0.0 **** -0.24
34847 H 134.85641864178808 98.08984597171782 53.92818384061485 H 0.0 **** 0.06
34848 H 135.5150094976902 98.42343584578482 52.308648545477865 H 0.0 **** 0.06
34849 H 136.51802550377522 97.59590050460072 53.52567398139456 H 0.0 **** 0.06
34850 H 136.12383928580658 99.32129207428555 53.72004189589205 H 0.0 **** 0.06
34851 C 58.80925857830445 173.70753646167807 5.026429767111722 C 0.0 **** -0.24
34852 H 59.17969551100417 172.79934127071863 5.501318281919055 H 0.0 **** 0.06
34853 H 58.97565469587377 174.5579881581591 5.68874344378554 H 0.0 **** 0.06
34854 H 57.74317575979444 173.60477611829862 4.827623712436889 H 0.0 **** 0.06
34855 H 59.339836130617456 173.86882019515974 4.08724065923343 H 0.0 **** 0.06
34856 C 98.73614923889723 116.29907063350204 193.36412990057315 C 0.0 **** -0.24
34857 H 99.72529222193619 116.75451417937337 193.4032893159086 H 0.0 **** 0.06
34858 H 98.04171846579924 116.98138133926436 192.87333142016217 H 0.0 **** 0.06
34859 H 98.39038289258868 116.09587124348177 194.37728377099043 H 0.0 **** 0.06
34860 H 98.78669786121206 115.36651127367018 192.8034883150929 H 0.0 **** 0.06
34861 C 45.34883479297952 15.673655351408584 42.516845704705545 C 0.0 **** -0.24
34862 H 45.282225567616166 14.59234606388 42.63083933625127 H 0.0 **** 0.06
34863 H 46.37272629470891 15.996499239752097 42.710216294064935 H 0.0 **** 0.06
34864 H 44.67601256059257 16.15586333830001 43.2252282421107 H 0.0 **** 0.06
34865 H 45.06578566175284 15.949981882625863 41.50116663448263 H 0.0 **** 0.06
34866 C 62.792813741923 186.355546387791 56.733054817882135 C 0.0 **** -0.24
34867 H 61.93536615592308 186.17229503536106 57.380463276986575 H 0.0 **** 0.06
34868 H 62.559975263483295 186.0294260940684 55.71928909701529 H 0.0 **** 0.06
34869 H 63.654214567271 185.7998219950811 57.104712145004385 H 0.0 **** 0.06
34870 H 63.02280387813326 187.42110258284282 56.72850807352711 H 0.0 **** 0.06
34871 C 13.247503129849349 84.81300628998979 157.73348538160536 C 0.0 **** -0.24
34872 H 14.149612741324432 84.96470476403199 158.32538397301545 H 0.0 **** 0.06
34873 H 13.352946721702324 83.90686115250027 157.13727084941354 H 0.0 **** 0.06
34874 H 13.09786243218241 85.66767925339884 157.07321351639143 H 0.0 **** 0.06
34875 H 12.388853766419572 84.71398703519073 158.39806239402094 H 0.0 **** 0.06
34876 C 16.603017893334993 174.33545163078043 27.013235916993608 C 0.0 **** -0.24
34877 H 17.55356760686047 174.29900519708508 27.546098045809913 H 0.0 **** 0.06
34878 H 16.783756772131056 174.57822607189837 25.96532934081057 H 0.0 **** 0.06
34879 H 15.965315654426178 175.09758654416424 27.458529444827207 H 0.0 **** 0.06
34880 H 16.11183036506816 173.3645741077529 27.081432625692543 H 0.0 **** 0.06
34881 C 160.43727783547433 10.86201160131452 101.10921242030373 C 0.0 **** -0.24
34882 H 160.986189184085 10.417601026835882 101.93851736001288 H 0.0 **** 0.06
34883 H 159.9191974601603 10.079651002759988 100.5548761055906 H 0.0 **** 0.06
34884 H 161.13405748006372 11.37683150290843 100.44663279712067 H 0.0 **** 0.06
34885 H 159.7097111910163 11.57618950615506 101.4970240544272 H 0.0 **** 0.06
34886 C 211.42879296130533 36.76687593650769 211.2828033964392 C 0.0 **** -0.24
34887 H 211.55475953727534 35.78814608473317 211.74516735097342 H 0.0 **** 0.06
34888 H 210.5013005402059 36.78060226617441 210.70900154905604 H 0.0 **** 0.06
34889 H 212.26996091579758 36.96600020330624 210.61831626604186 H 0.0 **** 0.06
34890 H 211.389087145776 37.532700110714416 212.05699840279448 H 0.0 **** 0.06
34891 C 77.43344876999828 135.88593925127378 166.74600131023197 C 0.0 **** -0.24
34892 H 78.35787300500226 136.03528660161066 167.30265678364952 H 0.0 **** 0.06
34893 H 76.81031695933405 136.77641347989186 166.8322134960701 H 0.0 **** 0.06
34894 H 76.89938383890433 135.02745962521527 167.1522247744649 H 0.0 **** 0.06
34895 H 77.66636591531449 135.70558348162092 165.69699105234383 H 0.0 **** 0.06
34896 C 72.79553886352149 192.61428145663828 183.32854298896007 C 0.0 **** -0.24
34897 H 72.66347992863247 191.56446483914337 183.58819780771137 H 0.0 **** 0.06
34898 H 71.87592645852037 193.1604608250302 183.53916649941303 H 0.0 **** 0.06
34899 H 73.03319176493217 192.69877460146364 182.26800343383255 H 0.0 **** 0.06
34900 H 73.61101341180903 193.03443360701905 183.91743905114757 H 0.0 **** 0.06
34901 C 25.679251821109887 216.15622085561412 127.52014783752155 C 0.0 **** -0.24
34902 H 26.30502951875151 217.03131609892716 127.34438456499034 H 0.0 **** 0.06
34903 H 25.416773759730802 216.10312527795472 128.57675148315803 H 0.0 **** 0.06
34904 H 26.225409090222612 215.25682110235965 127.23540855154103 H 0.0 **** 0.06
34905 H 24.771446162728438 216.2345967634653 126.92252318225009 H 0.0 **** 0.06
34906 C 121.96759887301305 17.1805512607246 183.06021762383577 C 0.0 **** -0.24
34907 H 121.77891205476313 16.213720476233107 183.52717978588845 H 0.0 **** 0.06
34908 H 122.99954509175849 17.219283592856357 182.71068514619927 H 0.0 **** 0.06
34909 H 121.80000975061874 17.974684071614263 183.78753880120956 H 0.0 **** 0.06
34910 H 121.29159279790001 17.312621632578157 182.2149233825806 H 0.0 **** 0.06
34911 C 123.47619174440028 76.59882370800047 0.6770334582021391 C 0.0 **** -0.24
34912 H 123.9206076973801 76.6496133414346 -0.31720193584787637 H 0.0 **** 0.06
34913 H 122.39175113641842 76.65791677210036 0.5940474041110662 H 0.0 **** 0.06
34914 H 123.84032391074912 77.4309341561016 1.2799655534247094 H 0.0 **** 0.06
34915 H 123.7556657153445 75.65772029056153 1.1507050687617806 H 0.0 **** 0.06
34916 C 209.1232608473004 183.54966501703726 189.43635633209277 C 0.0 **** -0.24
34917 H 208.1201347637501 183.5434641516791 189.00999762620586 H 0.0 **** 0.06
34918 H 209.8238881677994 183.11566399373726 188.72223545655595 H 0.0 **** 0.06
34919 H 209.13179208790862 182.96366713544353 190.35566794726833 H 0.0 **** 0.06
34920 H 209.4178932920138 184.5757816681148 189.65678201367433 H 0.0 **** 0.06
34921 C 123.05327662298667 91.488374676644 119.9656006946409 C 0.0 **** -0.24
34922 H 122.60356098304824 91.77675593330419 120.91533393022638 H 0.0 **** 0.06
34923 H 123.44658962885082 92.37405146868652 119.4654820533695 H 0.0 **** 0.06
34924 H 122.29960118846536 91.0182816696172 119.33365445852519 H 0.0 **** 0.06
34925 H 123.86559975300192 90.78387660339008 120.14711033993865 H 0.0 **** 0.06
34926 C 31.722818433074565 22.024320772523737 73.44394476725408 C 0.0 **** -0.24
34927 H 32.29939193290818 21.099877936849623 73.48070866636898 H 0.0 **** 0.06
34928 H 30.69816926812004 21.7998653964178 73.14402303451364 H 0.0 **** 0.06
34929 H 32.172686015889894 22.704545257200024 72.72155711151113 H 0.0 **** 0.06
34930 H 31.720212445522122 22.489361019046882 74.42912236204391 H 0.0 **** 0.06
34931 C 201.75903649643237 5.122083817961453 90.1553709991605 C 0.0 **** -0.24
34932 H 202.55246072384983 4.382694558022763 90.04768790202759 H 0.0 **** 0.06
34933 H 201.05148261457225 4.78814207400643 90.91469409446005 H 0.0 **** 0.06
34934 H 201.24149959167767 5.24110568959307 89.20346581297456 H 0.0 **** 0.06
34935 H 202.19189731995544 6.07709904552857 90.45536196821901 H 0.0 **** 0.06
34936 C 123.77077027715005 175.3722351490208 126.26637047149761 C 0.0 **** -0.24
34937 H 123.3084053538144 174.52276366331506 126.76842923118458 H 0.0 **** 0.06
34938 H 122.99931370867118 175.97036209637776 125.78025929784907 H 0.0 **** 0.06
34939 H 124.47745800815987 175.01178770820957 125.51820521802686 H 0.0 **** 0.06
34940 H 124.2969356168041 175.98377855628672 126.99856840477078 H 0.0 **** 0.06
34941 C 130.74667896099714 77.87788107192858 120.63953975884773 C 0.0 **** -0.24
34942 H 130.71925224409443 78.95695775790227 120.48771611294033 H 0.0 **** 0.06
34943 H 131.0721257995142 77.39038414052965 119.71990164840064 H 0.0 **** 0.06
34944 H 129.7510499447327 77.52330091688998 120.90666129788782 H 0.0 **** 0.06
34945 H 131.44373685498982 77.64247871519763 121.44241529242818 H 0.0 **** 0.06
34946 C 19.83125772894695 196.91362993575544 96.79327349667751 C 0.0 **** -0.24
34947 H 19.125365196740375 196.10279770645337 96.97146427954154 H 0.0 **** 0.06
34948 H 20.797799496407336 196.65667733703586 97.22821433453653 H 0.0 **** 0.06
34949 H 19.45747247583077 197.8281765903443 97.25178751830167 H 0.0 **** 0.06
34950 H 19.945679036672203 197.0656626140812 95.7199264098824 H 0.0 **** 0.06
34951 C 16.221894166285352 125.13349715423273 212.400774766737 C 0.0 **** -0.24
34952 H 17.143813396104008 125.52799585487118 212.8270807976168 H 0.0 **** 0.06
34953 H 15.912709719031952 124.24985439546201 212.9586399665435 H 0.0 **** 0.06
34954 H 16.39047219906962 124.86428680366559 211.3575948264253 H 0.0 **** 0.06
34955 H 15.441174860094009 125.891838632024 212.45897874248107 H 0.0 **** 0.06
34956 C 27.57720870476345 184.11598391537387 14.950552113900926 C 0.0 **** -0.24
34957 H 26.78013912577501 183.37710439184616 15.026329775680608 H 0.0 **** 0.06
34958 H 27.65972450119756 184.45582423378715 13.917519267888508 H 0.0 **** 0.06
34959 H 28.5199195139748 183.66644341588545 15.261331446920678 H 0.0 **** 0.06
34960 H 27.34957025919539 184.96477126947656 15.595388451104668 H 0.0 **** 0.06
34961 C 141.77971716920138 38.89090305728092 138.03007400049495 C 0.0 **** -0.24
34962 H 141.67025269394628 39.343004406389525 137.0440866562443 H 0.0 **** 0.06
34963 H 141.17965297060488 39.44641188559757 138.75222292617616 H 0.0 **** 0.06
34964 H 142.8281459414451 38.92031956804027 138.3283153969719 H 0.0 **** 0.06
34965 H 141.44017818726905 37.856227559498166 137.99541837023787 H 0.0 **** 0.06
34966 C 167.67823020814495 39.84930651250474 72.62610773022878 C 0.0 **** -0.24
34967 H 167.89799423685488 40.770048978101315 73.16746088459594 H 0.0 **** 0.06
34968 H 166.71260231360185 39.94260451043746 72.12790454814784 H 0.0 **** 0.06
34969 H 167.64603030849983 39.01474116541938 73.32693937528687 H 0.0 **** 0.06
34970 H 168.45565295232984 39.67047752287479 71.88320853874326 H 0.0 **** 0.06
34971 C 44.63366649157493 41.135740130572515 103.33897624704257 C 0.0 **** -0.24
34972 H 44.36423230432172 40.57263065687431 102.44500192461454 H 0.0 **** 0.06
34973 H 44.4441386180477 42.196246519715885 103.17087052690569 H 0.0 **** 0.06
34974 H 45.69065113336592 40.9861278763845 103.55735610716503 H 0.0 **** 0.06
34975 H 44.035822678166426 40.787863586043045 104.1812765603817 H 0.0 **** 0.06
34976 C 109.92001307611572 118.28899205152094 53.49845420685894 C 0.0 **** -0.24
34977 H 109.75149992554317 118.4302707749943 52.431398089420895 H 0.0 **** 0.06
34978 H 109.0270713773047 118.58504929472188 54.04947088229197 H 0.0 **** 0.06
34979 H 110.76371931287444 118.90192630198415 53.817335918729796 H 0.0 **** 0.06
34980 H 110.13870514621986 117.23960952247238 53.696179327281385 H 0.0 **** 0.06
34981 C 102.6106937834429 151.68778725947686 78.65642619744607 C 0.0 **** -0.24
34982 H 102.54669853550136 150.9258097451571 79.43298656639213 H 0.0 **** 0.06
34983 H 102.58262713079874 151.21091780168734 77.67691105611597 H 0.0 **** 0.06
34984 H 103.54380924514545 152.2401719199139 78.76587414756351 H 0.0 **** 0.06
34985 H 101.76938328317023 152.3740488701415 78.75130915025663 H 0.0 **** 0.06
34986 C 120.84961948133132 195.0252194020324 193.92282458305618 C 0.0 **** -0.24
34987 H 120.14327352654705 195.1702244846006 194.74064245170712 H 0.0 **** 0.06
34988 H 120.48132780052039 194.2436210359068 193.25908717166342 H 0.0 **** 0.06
34989 H 121.81846896210335 194.73305487351206 194.32765010761443 H 0.0 **** 0.06
34990 H 120.9550435479156 195.95675214327483 193.36569831872367 H 0.0 **** 0.06
34991 C 170.54628208662302 53.26512340415826 2.3671190243853744 C 0.0 **** -0.24
34992 H 169.60576655792636 52.94421420253747 2.815260705121169 H 0.0 **** 0.06
34993 H 170.9010766999229 52.49671581076802 1.6794594369856952 H 0.0 **** 0.06
34994 H 171.28700463542347 53.423672076338875 3.1500836082142314 H 0.0 **** 0.06
34995 H 170.38856241299547 54.19678526274342 1.8223256240748071 H 0.0 **** 0.06
34996 C 125.93639364233492 9.965358229491542 104.34576629366292 C 0.0 **** -0.24
34997 H 126.01762482473366 8.97169377596768 103.90554182847241 H 0.0 **** 0.06
34998 H 124.92290157341382 10.342618580678732 104.2057998443939 H 0.0 **** 0.06
34999 H 126.6453827998371 10.636837368281434 103.86246694454177 H 0.0 **** 0.06
35000 H 126.15817310048179 9.90929313754151 105.41166343702757 H 0.0 **** 0.06
35001 C 137.19446530057076 79.05090077627072 129.91628377817744 C 0.0 **** -0.24
35002 H 137.0420465051876 79.14108493081484 130.99087180708614 H 0.0 **** 0.06
35003 H 138.2451273556727 79.22296936262127 129.68292186667406 H 0.0 **** 0.06
35004 H 136.5814139529212 79.79014357764883 129.39953017780772 H 0.0 **** 0.06
35005 H 136.9085832729565 78.05010222006594 129.5903836751362 H 0.0 **** 0.06
35006 C 0.029496900059371 207.97884989147173 211.37247164013831 C 0.0 **** -0.24
35007 H -0.7456138148325238 208.7413066152673 211.44392264487524 H 0.0 **** 0.06
35008 H -0.4014632825605986 207.05848365037426 210.97868942128798 H 0.0 **** 0.06
35009 H 0.4469677905641163 207.7914940326839 212.36147364436468 H 0.0 **** 0.06
35010 H 0.8186329091511482 208.32556832057983 210.70453538312088 H 0.0 **** 0.06
35011 C 25.475510239760325 122.37814174205342 96.55821918112288 C 0.0 **** -0.24
35012 H 24.888212999127347 121.46378337829394 96.64302408323941 H 0.0 **** 0.06
35013 H 25.04075324492851 123.14809210476845 97.19636959247761 H 0.0 **** 0.06
35014 H 25.470883913575847 122.71768820294555 95.52300088732709 H 0.0 **** 0.06
35015 H 26.500559022538653 122.18124633062492 96.87198234625295 H 0.0 **** 0.06
35016 C 179.2581859173253 31.386356207115796 56.45015938979188 C 0.0 **** -0.24
35017 H 178.74061349865423 30.644349522709035 55.84187161693937 H 0.0 **** 0.06
35018 H 180.31308011474366 31.1207798154922 56.52637334343747 H 0.0 **** 0.06
35019 H 178.8160355744869 31.41042906339976 57.44604377289343 H 0.0 **** 0.06
35020 H 179.16198596550092 32.36705345494474 55.98617708032313 H 0.0 **** 0.06
35021 C 118.22387594227946 165.89740702320364 134.1008160974638 C 0.0 **** -0.24
35022 H 119.123207397462 165.58272064291447 133.57105052782657 H 0.0 **** 0.06
35023 H 118.4341006584878 166.8068291267255 134.6643515045679 H 0.0 **** 0.06
35024 H 117.9111254733562 165.10905408526548 134.78454550593085 H 0.0 **** 0.06
35025 H 117.42829183197107 166.09055089517892 133.38124712668127 H 0.0 **** 0.06
35026 C 59.920739645392345 152.36452182786132 109.91597898904034 C 0.0 **** -0.24
35027 H 60.529517949550225 151.53518595761943 109.55412384054837 H 0.0 **** 0.06
35028 H 59.94641060220874 153.1773693928269 109.19068045498226 H 0.0 **** 0.06
35029 H 60.31564156034828 152.7153397065739 110.87020771168854 H 0.0 **** 0.06
35030 H 58.8925232375548 152.02779694994808 110.04989134624266 H 0.0 **** 0.06
35031 C 60.24925691587758 135.14627634468235 29.74186016508972 C 0.0 **** -0.24
35032 H 60.308313504002456 135.28916878529725 30.8205687432381 H 0.0 **** 0.06
35033 H 59.21810322141786 135.27485445769514 29.4139503437801 H 0.0 **** 0.06
35034 H 60.58989876538914 134.14219674127503 29.489516325369735 H 0.0 **** 0.06
35035 H 60.88332637153658 135.88156008007383 29.243515966567216 H 0.0 **** 0.06
35036 C 190.02174346403058 0.19977590780154486 119.11483242720807 C 0.0 **** -0.24
35037 H 190.71487020256097 -0.6407829729417429 119.08217928382653 H 0.0 **** 0.06
35038 H 189.86588412719001 0.5026970895099581 120.14987385098725 H 0.0 **** 0.06
35039 H 189.0696591139276 -0.09713472569648474 118.67424575761551 H 0.0 **** 0.06
35040 H 190.43767289127112 1.0345356595200386 118.55043893901818 H 0.0 **** 0.06
35041 C 6.511653906764423 62.521384073086665 110.34772395239504 C 0.0 **** -0.24
35042 H 7.198970602319889 61.69107774829075 110.50659586901527 H 0.0 **** 0.06
35043 H 5.656645969476983 62.17893011706553 109.76468720032874 H 0.0 **** 0.06
35044 H 7.023628933411601 63.317847696535466 109.80762913988072 H 0.0 **** 0.06
35045 H 6.168120085933197 62.898070390504586 111.31144905768464 H 0.0 **** 0.06
35046 C 131.72844367729704 60.41692791327414 135.1297319067449 C 0.0 **** -0.24
35047 H 130.88663691629193 60.36242601904328 135.8206472937997 H 0.0 **** 0.06
35048 H 131.368710250297 60.70235868575138 134.14128349180066 H 0.0 **** 0.06
35049 H 132.21441588898136 59.442319873008344 135.07394363197358 H 0.0 **** 0.06
35050 H 132.44307564285361 61.15910391556946 135.48547489213337 H 0.0 **** 0.06
35051 C 26.838260164575132 92.71739386012571 115.88859128311294 C 0.0 **** -0.24
35052 H 27.768746926920784 92.48392606368496 116.4070277078638 H 0.0 **** 0.06
35053 H 27.045279947140727 93.38970230317285 115.05611407632288 H 0.0 **** 0.06
35054 H 26.14759345344848 93.19824629110913 116.58134561994082 H 0.0 **** 0.06
35055 H 26.392438065446967 91.797411419928 115.51081608824863 H 0.0 **** 0.06
35056 C 178.12667645639903 197.8421372684394 167.67637530803387 C 0.0 **** -0.24
35057 H 178.32810059340767 197.39571397666393 166.70289922286332 H 0.0 **** 0.06
35058 H 179.03732590778014 198.30110401492672 168.06141717649155 H 0.0 **** 0.06
35059 H 177.78716330520388 197.07041165708827 168.3671368700472 H 0.0 **** 0.06
35060 H 177.35180154559202 198.60278375498672 167.5728235843781 H 0.0 **** 0.06
35061 C 122.63694491086717 61.73636740964844 115.53787007825974 C 0.0 **** -0.24
35062 H 122.06379413978239 62.657486488745576 115.42716329753722 H 0.0 **** 0.06
35063 H 122.83732907083784 61.31235082990861 114.5540696614101 H 0.0 **** 0.06
35064 H 122.06552733522226 61.023256327353295 116.1319068382391 H 0.0 **** 0.06
35065 H 123.57998958016383 61.95345883906134 116.03906783580351 H 0.0 **** 0.06
35066 C 14.100252842558518 60.80489978582716 49.1134885207335 C 0.0 **** -0.24
35067 H 13.420999111461128 60.73864419780023 49.96363598422829 H 0.0 **** 0.06
35068 H 13.523155479292598 60.92829695076807 48.196732871752374 H 0.0 **** 0.06
35069 H 14.691212958483334 59.89113789247915 49.049805847938 H 0.0 **** 0.06
35070 H 14.764473095994333 61.65811152109123 49.243885198250354 H 0.0 **** 0.06
35071 C 84.41575999877743 176.97000454560177 89.11080853315383 C 0.0 **** -0.24
35072 H 84.19749258918527 175.9092846099308 89.23770496987237 H 0.0 **** 0.06
35073 H 83.72882001407943 177.3965267316375 88.3798130339103 H 0.0 **** 0.06
35074 H 85.44066427152431 177.0891731602122 88.7592701832321 H 0.0 **** 0.06
35075 H 84.29626023362566 177.4824138859995 90.06499750678688 H 0.0 **** 0.06
35076 C 78.09190753494083 111.60263607364702 215.43836718238754 C 0.0 **** -0.24
35077 H 77.22213152137188 111.82746579888875 216.0557442303935 H 0.0 **** 0.06
35078 H 77.84617123109341 111.77421383938155 214.38966279056712 H 0.0 **** 0.06
35079 H 78.37796535326133 110.56054834282752 215.5796938130184 H 0.0 **** 0.06
35080 H 78.91984471180258 112.25023904306495 215.72833713985423 H 0.0 **** 0.06
35081 C 208.72216202464904 94.16026388040717 69.93884967775121 C 0.0 **** -0.24
35082 H 209.29981565976732 93.29622046073126 69.61123652990487 H 0.0 **** 0.06
35083 H 208.45603612000545 94.76836382280999 69.07395569068098 H 0.0 **** 0.06
35084 H 209.31884093239822 94.75484294699362 70.63121602959153 H 0.0 **** 0.06
35085 H 207.81437942140397 93.82242203006905 70.43855435335824 H 0.0 **** 0.06
35086 C 40.74083422369826 167.81596300388324 80.32552996585868 C 0.0 **** -0.24
35087 H 41.187404775544806 167.3519044642138 79.44540805812751 H 0.0 **** 0.06
35088 H 41.059048112712375 167.27950066466533 81.21949429297807 H 0.0 **** 0.06
35089 H 39.65464994842013 167.77634891237622 80.24466849671764 H 0.0 **** 0.06
35090 H 41.06349306149981 168.85490884287492 80.39113446206694 H 0.0 **** 0.06
35091 C 86.71677527734191 57.73170319463412 90.50101880406739 C 0.0 **** -0.24
35092 H 86.24858322168 56.971906219892105 91.12568501023789 H 0.0 **** 0.06
35093 H 86.77374059573562 58.670694119095 91.05163040335883 H 0.0 **** 0.06
35094 H 86.12223178651332 57.874839082836615 89.59835590851957 H 0.0 **** 0.06
35095 H 87.72159770218308 57.40930928317039 90.22735623129354 H 0.0 **** 0.06
35096 C 125.07741468665631 41.18388182890472 12.448205897188515 C 0.0 **** -0.24
35097 H 126.08887181769535 41.48963461395023 12.718860421758933 H 0.0 **** 0.06
35098 H 124.52755504015568 42.04595097243735 12.069859089422138 H 0.0 **** 0.06
35099 H 124.57106842449286 40.787604078552604 13.328486277323876 H 0.0 **** 0.06
35100 H 125.12479355585867 40.41413333427239 11.678236660088302 H 0.0 **** 0.06
35101 C 54.60992209386879 0.17474205948565213 47.565043910315694 C 0.0 **** -0.24
35102 H 54.09067610725177 -0.7519288101200061 47.32305461099121 H 0.0 **** 0.06
35103 H 54.53631141560591 0.8634167491739788 46.72330417712445 H 0.0 **** 0.06
35104 H 55.65953403648328 -0.03910020916475787 47.76959564034249 H 0.0 **** 0.06
35105 H 54.15324332621677 0.6265198654793949 48.44595052467129 H 0.0 **** 0.06
35106 C 76.75807055815535 100.69463385623594 153.81572604983643 C 0.0 **** -0.24
35107 H 76.88427709062809 99.96089342744553 153.0191364165948 H 0.0 **** 0.06
35108 H 75.72545893129508 100.67716353116587 154.16383256635515 H 0.0 **** 0.06
35109 H 76.99592593842551 101.68832200792325 153.43472364858673 H 0.0 **** 0.06
35110 H 77.42534166332756 100.45275644385187 154.64189412949474 H 0.0 **** 0.06
35111 C 175.88375923646402 2.2991996191200315 166.48765793343483 C 0.0 **** -0.24
35112 H 176.1778680358155 1.4331110863586787 165.89518110152144 H 0.0 **** 0.06
35113 H 176.10888589366533 2.1148786063094747 167.53784881126217 H 0.0 **** 0.06
35114 H 174.81325331075305 2.472129889463588 166.37012347725363 H 0.0 **** 0.06
35115 H 176.43241464498334 3.1761401102686477 166.14611038094299 H 0.0 **** 0.06
35116 C 76.6226461406731 212.1673873169244 68.88320679152943 C 0.0 **** -0.24
35117 H 75.6601355064587 212.5457497868275 69.22692942788507 H 0.0 **** 0.06
35118 H 77.25324481986293 211.94504021833288 69.7449336837147 H 0.0 **** 0.06
35119 H 77.10792751317148 212.91951407077306 68.2618401859518 H 0.0 **** 0.06
35120 H 76.4686370367806 211.25912369417884 68.30126305634825 H 0.0 **** 0.06
35121 C 28.089363787576033 116.85192218016051 115.28652778727268 C 0.0 **** -0.24
35122 H 28.764588410124986 116.62819300823283 116.11259261999565 H 0.0 **** 0.06
35123 H 27.102797964855924 117.0979013230236 115.68078442314696 H 0.0 **** 0.06
35124 H 28.01332456778357 115.98260140429447 114.63392335092605 H 0.0 **** 0.06
35125 H 28.47642552789702 117.6988174236249 114.72017737689909 H 0.0 **** 0.06
35126 C 204.58272854371447 82.15604188489783 5.860093150920534 C 0.0 **** -0.24
35127 H 204.08378371463834 83.05074789647517 5.488886560981953 H 0.0 **** 0.06
35128 H 203.98815994063273 81.277801411204 5.610231251477714 H 0.0 **** 0.06
35129 H 204.69298169655173 82.22477995174546 6.942511491501378 H 0.0 **** 0.06
35130 H 205.56697465154315 82.0727525875875 5.399346337029591 H 0.0 **** 0.06
35131 C 139.01911178497528 192.77018038716218 64.7878172689633 C 0.0 **** -0.24
35132 H 138.46770986987764 193.632992284742 64.41690264324897 H 0.0 **** 0.06
35133 H 139.72931308880896 192.43843855649664 64.029479859622 H 0.0 **** 0.06
35134 H 138.32284367086413 191.96291783135476 65.0126683253975 H 0.0 **** 0.06
35135 H 139.5590245620882 193.04728336699446 65.69426710184777 H 0.0 **** 0.06
35136 C 170.4759963186049 41.93226377510031 66.68661993844316 C 0.0 **** -0.24
35137 H 171.07152825417188 41.64491316801826 67.55362656644596 H 0.0 **** 0.06
35138 H 171.0881030838787 41.86379535863841 65.78675798366334 H 0.0 **** 0.06
35139 H 170.12426265576846 42.95577754443296 66.81036203218738 H 0.0 **** 0.06
35140 H 169.62034091288245 41.26147719873046 66.59690724720556 H 0.0 **** 0.06
35141 C 57.12992929055707 41.30320547593834 55.15961125115528 C 0.0 **** -0.24
35142 H 58.012364011767716 40.75340370278377 54.8343958047591 H 0.0 **** 0.06
35143 H 57.21089067181771 41.522304305573414 56.22446199206745 H 0.0 **** 0.06
35144 H 56.238609060016586 40.701667149990044 54.978647051013425 H 0.0 **** 0.06
35145 H 57.057425291516324 42.23679419224857 54.60194072913308 H 0.0 **** 0.06
35146 C 100.72853956607146 93.20263597748146 63.712741816676555 C 0.0 **** -0.24
35147 H 101.3164066380479 92.45059681692771 64.23819831247695 H 0.0 **** 0.06
35148 H 99.82570859389931 93.42182994170093 64.28422270538039 H 0.0 **** 0.06
35149 H 100.45263795982099 92.82597775658058 62.727784951896936 H 0.0 **** 0.06
35150 H 101.31852391821222 94.11264276977914 63.60216494629675 H 0.0 **** 0.06
35151 C 35.00860831040718 209.1689920777243 53.37663969438097 C 0.0 **** -0.24
35152 H 35.3433738566562 208.6454994467923 54.27199639734033 H 0.0 **** 0.06
35153 H 35.01580808286046 208.4810907379761 52.53032647192683 H 0.0 **** 0.06
35154 H 35.679110204429364 210.00370156855382 53.17213196038702 H 0.0 **** 0.06
35155 H 33.997454313880155 209.54362228579822 53.53186829477983 H 0.0 **** 0.06
35156 C 57.7596870968066 157.9922232574936 1.4285033965219327 C 0.0 **** -0.24
35157 H 58.112753615788336 157.75970684806106 0.4243812574502499 H 0.0 **** 0.06
35158 H 57.09121107336945 158.85284948111118 1.3864621506344577 H 0.0 **** 0.06
35159 H 58.61061548366705 158.22396609029312 2.0690041968578328 H 0.0 **** 0.06
35160 H 57.22266850616376 157.1346047551242 1.832839472351111 H 0.0 **** 0.06
35161 C 174.60216991221404 57.247875415384144 153.31498386549407 C 0.0 **** -0.24
35162 H 173.8622661087156 57.77659246893772 153.91537687412313 H 0.0 **** 0.06
35163 H 174.6715248489342 57.713399177594084 152.33096827356604 H 0.0 **** 0.06
35164 H 174.30202862905995 56.20534176193112 153.2043812130491 H 0.0 **** 0.06
35165 H 175.57286006214642 57.296168253073716 153.8092091012379 H 0.0 **** 0.06
35166 C 167.06203125608295 201.95842299863668 6.775049907776463 C 0.0 **** -0.24
35167 H 166.69828125049185 202.53025321178418 5.9213653775994715 H 0.0 **** 0.06
35168 H 166.34326857036 202.02798855415367 7.591336601497829 H 0.0 **** 0.06
35169 H 168.02124760395057 202.36047344638914 7.0998553225619645 H 0.0 **** 0.06
35170 H 167.18466524205564 200.91460067446857 6.486994376913344 H 0.0 **** 0.06
35171 C 96.06700900931084 145.29139973928034 186.89464572145005 C 0.0 **** -0.24
35172 H 96.50769735723027 145.30216547607353 187.89145614126363 H 0.0 **** 0.06
35173 H 95.04668077359177 144.91054855962415 186.9538557947754 H 0.0 **** 0.06
35174 H 96.65718083903472 144.64769473636738 186.2438353149077 H 0.0 **** 0.06
35175 H 96.05456338849383 146.30353874087257 186.49133582818374 H 0.0 **** 0.06
35176 C 84.56958458623153 93.96696597130988 127.24980064708238 C 0.0 **** -0.24
35177 H 85.28860477574592 93.28368590947021 127.70193167223151 H 0.0 **** 0.06
35178 H 83.84519590930314 93.39916416246068 126.6648721837564 H 0.0 **** 0.06
35179 H 85.09366771944833 94.66760416893196 126.59936761367719 H 0.0 **** 0.06
35180 H 84.05135822235239 94.51924260560311 128.03421514512115 H 0.0 **** 0.06
35181 C 101.8941196972376 59.66931354895797 52.09006425507897 C 0.0 **** -0.24
35182 H 102.68983097988409 59.2645097806456 51.46423152148833 H 0.0 **** 0.06
35183 H 102.12253435273873 59.47451248169318 53.13796569508469 H 0.0 **** 0.06
35184 H 100.9493332983672 59.1931443964466 51.828683827014856 H 0.0 **** 0.06
35185 H 101.8162233962587 60.744731205760786 51.927429134946294 H 0.0 **** 0.06
35186 C 192.20823109654307 41.17392634476781 137.77191177938755 C 0.0 **** -0.24
35187 H 192.8902820818372 40.34885140270981 137.98228279836889 H 0.0 **** 0.06
35188 H 191.90614454011697 41.13802449048502 136.72515158312342 H 0.0 **** 0.06
35189 H 192.70987052219752 42.120251632485065 137.97449626795787 H 0.0 **** 0.06
35190 H 191.32755612736588 41.08666252158325 138.40862660493826 H 0.0 **** 0.06
35191 C 86.73003874353186 20.06168929555571 109.3888845074314 C 0.0 **** -0.24
35192 H 85.79230799546632 20.45871501476114 109.0012484096576 H 0.0 **** 0.06
35193 H 87.50671824377169 20.82291292628105 109.31164666689376 H 0.0 **** 0.06
35194 H 87.02023492567018 19.185296178730226 108.8091557590078 H 0.0 **** 0.06
35195 H 86.60089380921922 19.779833062450308 110.43348719416646 H 0.0 **** 0.06
35196 C 58.57797771624068 114.71648862902511 143.70087660395296 C 0.0 **** -0.24
35197 H 59.37067033975367 115.09319690618516 143.0554818462898 H 0.0 **** 0.06
35198 H 58.64856088654922 115.19370959621212 144.6790710255038 H 0.0 **** 0.06
35199 H 58.684705429463904 113.63708422567605 143.81485243264126 H 0.0 **** 0.06
35200 H 57.60902442264137 114.9401218958573 143.2553277273102 H 0.0 **** 0.06
35201 C 154.56740130297464 13.551236041422612 192.96661924862207 C 0.0 **** -0.24
35202 H 153.89076507887893 13.234417113335212 192.17334419327818 H 0.0 **** 0.06
35203 H 155.55520056972665 13.739969657960728 192.5475711033639 H 0.0 **** 0.06
35204 H 154.63559161946523 12.766319621934827 193.72047762246297 H 0.0 **** 0.06
35205 H 154.186699618675 14.463831359211554 193.4252140040265 H 0.0 **** 0.06
35206 C 1.6679796212525275 113.20274491199284 60.79996507303275 C 0.0 **** -0.24
35207 H 2.4544991555757747 112.94459478424154 60.0910901443645 H 0.0 **** 0.06
35208 H 1.4545918591392137 112.34204369697717 61.43433817257869 H 0.0 **** 0.06
35209 H 0.7671786535096317 113.48536793360783 60.254698175231 H 0.0 **** 0.06
35210 H 1.9958776461126035 114.03845545851523 61.417350598692735 H 0.0 **** 0.06
35211 C 112.48236738444426 177.22110798240345 202.92709664176814 C 0.0 **** -0.24
35212 H 113.03483347560525 176.2823609796119 202.96276754497922 H 0.0 **** 0.06
35213 H 113.08232630922565 177.97619470735685 202.41970088519122 H 0.0 **** 0.06
35214 H 112.26356084439384 177.5525284378209 203.942418425616 H 0.0 **** 0.06
35215 H 111.54849969650117 177.07200617451014 202.38387113469963 H 0.0 **** 0.06
35216 C 89.68391950439172 40.38738016124847 70.07362371009229 C 0.0 **** -0.24
35217 H 88.93347716228567 39.61988026378282 70.26533795056231 H 0.0 **** 0.06
35218 H 89.48007855781646 40.864178375448375 69.11501979651587 H 0.0 **** 0.06
35219 H 90.67234854903484 39.92982466220013 70.04951757420251 H 0.0 **** 0.06
35220 H 89.64824904546947 41.13483500622624 70.86686265779836 H 0.0 **** 0.06
35221 C 53.06112351672377 117.09476122180386 47.669488358107955 C 0.0 **** -0.24
35222 H 53.94446634052116 117.0021648757377 48.30077078053115 H 0.0 **** 0.06
35223 H 53.043409634871395 118.08533854849195 47.2136869370875 H 0.0 **** 0.06
35224 H 52.16537089118533 116.95606859514366 48.273971366358865 H 0.0 **** 0.06
35225 H 53.092997933050796 116.33508529582461 46.888188381549384 H 0.0 **** 0.06
35226 C 50.34133279603782 25.95140471717201 57.52720217603468 C 0.0 **** -0.24
35227 H 49.843440418004604 24.99093117654148 57.664154402253246 H 0.0 **** 0.06
35228 H 50.13628653670321 26.591782845054226 58.385191700698954 H 0.0 **** 0.06
35229 H 49.96922083590647 26.426933715043802 56.6205765797078 H 0.0 **** 0.06
35230 H 51.41614443230364 25.793056543458576 57.43955551637811 H 0.0 **** 0.06
35231 C 42.13910409266359 162.87389154230647 7.2898299814192455 C 0.0 **** -0.24
35232 H 42.88951394280076 162.09749457376222 7.439037695227967 H 0.0 **** 0.06
35233 H 42.42017970185458 163.4914075525289 6.436127086231977 H 0.0 **** 0.06
35234 H 42.07683860927719 163.49487965513958 8.183974223207372 H 0.0 **** 0.06
35235 H 41.17057306378416 162.41107140124714 7.100311378192032 H 0.0 **** 0.06
35236 C 215.7777291898626 121.54424935261721 108.67558463973036 C 0.0 **** -0.24
35237 H 215.77724114979895 121.29507718003356 109.7375517563094 H 0.0 **** 0.06
35238 H 216.5992872610683 121.02456004924687 108.18096303983343 H 0.0 **** 0.06
35239 H 215.90189735509176 122.61926839909165 108.55487253742787 H 0.0 **** 0.06
35240 H 214.8315319944761 121.23475567040907 108.23034797764778 H 0.0 **** 0.06
35241 C 213.1975121776744 116.02212465704677 89.5237943956804 C 0.0 **** -0.24
35242 H 213.82039237519868 115.17732072640753 89.22865929708786 H 0.0 **** 0.06
35243 H 212.48866351695543 116.24734954842314 88.72704759813831 H 0.0 **** 0.06
35244 H 213.829071886621 116.8916868944096 89.70629094245658 H 0.0 **** 0.06
35245 H 212.65352372981192 115.77037377342008 90.43499811775797 H 0.0 **** 0.06
35246 C 105.6170959320571 73.68609338361819 178.46883624367103 C 0.0 **** -0.24
35247 H 106.38641448854996 72.9965376480427 178.12171669911154 H 0.0 **** 0.06
35248 H 106.022231512298 74.31177730377095 179.26403805953282 H 0.0 **** 0.06
35249 H 104.76683548275277 73.11987661747241 178.8482000108849 H 0.0 **** 0.06
35250 H 105.29271614435764 74.31525009109976 177.6393660850694 H 0.0 **** 0.06
35251 C 79.8732616685237 141.29264353098512 45.5298963031227 C 0.0 **** -0.24
35252 H 80.86205113370374 141.20485801261634 45.07904572619695 H 0.0 **** 0.06
35253 H 79.56990376211479 140.32617002741745 45.93209162885434 H 0.0 **** 0.06
35254 H 79.15639265533099 141.61259189817656 44.77259515745325 H 0.0 **** 0.06
35255 H 79.9041321704396 142.02836028666576 46.33420906688856 H 0.0 **** 0.06
35256 C 117.35657701424238 34.86541037788459 49.523662736679455 C 0.0 **** -0.24
35257 H 116.73346443054147 35.045574923501874 50.3995968547934 H 0.0 **** 0.06
35258 H 117.56827675403305 33.79899941584057 49.44237296938559 H 0.0 **** 0.06
35259 H 118.29288746850862 35.41517909541233 49.62440122752696 H 0.0 **** 0.06
35260 H 116.83292747606735 35.201718288562745 48.62892295153284 H 0.0 **** 0.06
35261 C 2.2277441582117206 25.771990937708097 53.555583604198034 C 0.0 **** -0.24
35262 H 2.382591002712182 24.97292941497807 54.28012985057802 H 0.0 **** 0.06
35263 H 1.6959154442568263 26.596615916536123 54.03234458692978 H 0.0 **** 0.06
35264 H 1.6379640612951079 25.394905753593378 52.71929276954296 H 0.0 **** 0.06
35265 H 3.1924701711523085 26.124017743367347 53.18979269379713 H 0.0 **** 0.06
35266 C 148.94612024768878 154.31100511887797 161.2224957684693 C 0.0 **** -0.24
35267 H 149.78053940867227 154.43869207757905 161.91261666605715 H 0.0 **** 0.06
35268 H 149.11440146640592 154.9195937160664 160.33297538158035 H 0.0 **** 0.06
35269 H 148.02223185051457 154.62536118479687 161.708293704762 H 0.0 **** 0.06
35270 H 148.86810752168356 153.26243817207995 160.93641099465106 H 0.0 **** 0.06
35271 C 162.88318064904516 168.08799274256697 23.0428046843397 C 0.0 **** -0.24
35272 H 162.16875216975643 168.51339304162474 23.747725015523542 H 0.0 **** 0.06
35273 H 162.79044530674463 167.00157582000756 23.042045158797748 H 0.0 **** 0.06
35274 H 163.89522888938444 168.36533893474288 23.339654150511407 H 0.0 **** 0.06
35275 H 162.68022311597997 168.4711138749219 22.043203484522735 H 0.0 **** 0.06
35276 C 12.246906835352888 103.42897827396136 98.46042863870117 C 0.0 **** -0.24
35277 H 11.273578464086768 103.2096003530959 98.02138154691319 H 0.0 **** 0.06
35278 H 12.805322922637743 102.50114719027032 98.58787315397599 H 0.0 **** 0.06
35279 H 12.108733953865226 103.9069602139051 99.43092731412763 H 0.0 **** 0.06
35280 H 12.800108282207589 104.09877901137658 97.80234333884063 H 0.0 **** 0.06
35281 C 94.95209259029123 207.1159909326082 140.8195623320845 C 0.0 **** -0.24
35282 H 95.45328659338013 207.00950767772395 139.8579059428023 H 0.0 **** 0.06
35283 H 95.37180094008649 206.40251919782412 141.52963073958426 H 0.0 **** 0.06
35284 H 93.88649823361364 206.92192904092616 140.69641287202563 H 0.0 **** 0.06
35285 H 95.09616823483539 208.12922587571313 141.19420654943718 H 0.0 **** 0.06
35286 C 180.81893135829478 76.77777722692487 102.99906671139713 C 0.0 **** -0.24
35287 H 181.15815895855545 76.30262471328315 102.07811075373077 H 0.0 **** 0.06
35288 H 181.2610919488257 77.77110322357068 103.07986042320549 H 0.0 **** 0.06
35289 H 181.1230043982626 76.17269913465672 103.85363750326313 H 0.0 **** 0.06
35290 H 179.73195244578253 76.86420717847697 102.98397158473107 H 0.0 **** 0.06
35291 C 24.619593971325514 46.59450252112488 158.3309498343151 C 0.0 **** -0.24
35292 H 24.291677445847768 45.558517795369994 158.24564721751022 H 0.0 **** 0.06
35293 H 24.850109123612498 46.984835541022605 157.33946708502623 H 0.0 **** 0.06
35294 H 25.509655255704416 46.64314826549352 158.95749163003615 H 0.0 **** 0.06
35295 H 23.825749155135952 47.19083926048569 158.78157834075915 H 0.0 **** 0.06
35296 C 106.32162620779458 88.26244054543861 135.94359121453118 C 0.0 **** -0.24
35297 H 105.40032128864102 88.07968073159844 136.497703344338 H 0.0 **** 0.06
35298 H 106.78137778035763 87.30953220200695 135.67971561310293 H 0.0 **** 0.06
35299 H 107.00872799343021 88.83905686408883 136.56296016417167 H 0.0 **** 0.06
35300 H 106.09451465609466 88.82120715644885 135.03555907969883 H 0.0 **** 0.06
35301 C 98.96010730390795 87.03640967384551 196.6679098492511 C 0.0 **** -0.24
35302 H 98.51735520335863 86.26401937101106 196.03861028368772 H 0.0 **** 0.06
35303 H 98.18778741355796 87.74466383864309 196.97013523597923 H 0.0 **** 0.06
35304 H 99.73474081133095 87.5602174331551 196.10807639833575 H 0.0 **** 0.06
35305 H 99.39992469110966 86.57681306346517 197.5526706912786 H 0.0 **** 0.06
35306 C 90.89233819755019 192.2406616273113 27.28046154772929 C 0.0 **** -0.24
35307 H 89.8208994684113 192.04500481702888 27.297301160945935 H 0.0 **** 0.06
35308 H 91.42055254842934 191.4166619618742 27.761734145205267 H 0.0 **** 0.06
35309 H 91.10091073277557 193.16719786009975 27.814268838363915 H 0.0 **** 0.06
35310 H 91.22846016141999 192.33310663613912 26.24699838569464 H 0.0 **** 0.06
35311 C 103.32934952002317 36.56828829242704 178.92285776906328 C 0.0 **** -0.24
35312 H 103.58713007882368 37.42125468393391 179.5502234092141 H 0.0 **** 0.06
35313 H 103.21783896209236 35.68082802529486 179.54577735094273 H 0.0 **** 0.06
35314 H 104.12071637748174 36.40381247180538 178.19196288732235 H 0.0 **** 0.06
35315 H 102.39157370507336 36.76947860800263 178.40449194941692 H 0.0 **** 0.06
35316 C 212.0975930030544 45.97510089909942 215.53756342864992 C 0.0 **** -0.24
35317 H 211.889137985514 46.99708768570976 215.2216668577368 H 0.0 **** 0.06
35318 H 211.363670285492 45.66929486048008 216.28350327625702 H 0.0 **** 0.06
35319 H 213.09772535389445 45.9261231187555 215.97002917458323 H 0.0 **** 0.06
35320 H 212.0416277748323 45.30962428382861 214.6767330817905 H 0.0 **** 0.06
35321 C 48.12557720051436 29.651353534252706 16.68817449885104 C 0.0 **** -0.24
35322 H 48.35244465588511 29.29864593027476 17.694278688634043 H 0.0 **** 0.06
35323 H 47.31066575760758 29.06004199039741 16.27147421980824 H 0.0 **** 0.06
35324 H 49.009604132712184 29.546001951941363 16.059054821160643 H 0.0 **** 0.06
35325 H 47.83134791885283 30.699925662775357 16.729402549909608 H 0.0 **** 0.06
35326 C 26.221444241916387 7.380917532381218 11.132035039673895 C 0.0 **** -0.24
35327 H 27.019431818050705 6.915449169042745 10.554297943013694 H 0.0 **** 0.06
35328 H 26.646068653724342 8.131516934672078 11.798968911718191 H 0.0 **** 0.06
35329 H 25.70764372450199 6.621038106249628 11.720603997349656 H 0.0 **** 0.06
35330 H 25.511944743481408 7.856306384148098 10.45392807405426 H 0.0 **** 0.06
35331 C 169.89937168997176 125.82527919614891 16.58130869164934 C 0.0 **** -0.24
35332 H 170.69685787000785 126.49590078510433 16.26316313700886 H 0.0 **** 0.06
35333 H 169.9320559420022 124.91256391849784 15.98467418714823 H 0.0 **** 0.06
35334 H 168.93529441961667 126.31606293613943 16.442905305960707 H 0.0 **** 0.06
35335 H 170.03187821754756 125.5764521909076 17.634634991027866 H 0.0 **** 0.06
35336 C 183.41281044137475 36.47002007786355 178.47414248589453 C 0.0 **** -0.24
35337 H 182.87470476351405 37.41698907223679 178.42541723951095 H 0.0 **** 0.06
35338 H 183.67405730123014 36.252885093137024 179.51009838348517 H 0.0 **** 0.06
35339 H 184.32216278890428 36.53816473726519 177.87677094702752 H 0.0 **** 0.06
35340 H 182.7805146097504 35.67271902437275 178.08305789952607 H 0.0 **** 0.06
35341 C 6.320750303120633 69.1134003418473 160.00425979200406 C 0.0 **** -0.24
35342 H 6.974145709796517 69.73909726378838 159.39587097816104 H 0.0 **** 0.06
35343 H 5.2825264347057725 69.29360514604394 159.72450709149928 H 0.0 **** 0.06
35344 H 6.4616934672034745 69.35636460143314 161.0571593690828 H 0.0 **** 0.06
35345 H 6.564991767458025 68.06348115744888 159.83690094988253 H 0.0 **** 0.06
35346 C 171.05778771674156 42.43746167335213 136.15017748489186 C 0.0 **** -0.24
35347 H 170.46880727995566 42.91858062835665 136.9306201298446 H 0.0 **** 0.06
35348 H 171.86736067926927 41.8669145714604 136.60626604414108 H 0.0 **** 0.06
35349 H 171.47572762951347 43.19733342437085 135.48896170466452 H 0.0 **** 0.06
35350 H 170.41896048946154 41.76665403401631 135.57574557373692 H 0.0 **** 0.06
35351 C 142.8034005086082 145.66665387751692 43.31079213999543 C 0.0 **** -0.24
35352 H 143.1657435391768 146.3421772693839 44.08574814728428 H 0.0 **** 0.06
35353 H 143.4388743413793 145.75158026363107 42.42914728097173 H 0.0 **** 0.06
35354 H 141.7791923307712 145.93229787009642 43.04859180060913 H 0.0 **** 0.06
35355 H 142.82953482012812 144.64213148403826 43.68125130190619 H 0.0 **** 0.06
35356 C 31.045083987486123 107.75860715321603 65.78665315854721 C 0.0 **** -0.24
35357 H 30.566580800025775 108.47248946024273 65.11557946509436 H 0.0 **** 0.06
35358 H 31.420781613347913 106.91393047693383 65.20843714555451 H 0.0 **** 0.06
35359 H 30.318928653946813 107.40494060739779 66.51864738270945 H 0.0 **** 0.06
35360 H 31.874461071646238 108.24317430622592 66.30153708492355 H 0.0 **** 0.06
35361 C 72.44104725620917 188.25434968065878 211.1088882736508 C 0.0 **** -0.24
35362 H 72.64790972761034 187.3933011151293 211.7440326776698 H 0.0 **** 0.06
35363 H 71.78420669129355 188.94611623881542 211.63711232951084 H 0.0 **** 0.06
35364 H 71.95553113731029 187.92138141453714 210.19115444457947 H 0.0 **** 0.06
35365 H 73.37643026942447 188.7575686900663 210.86303182666262 H 0.0 **** 0.06
35366 C 214.1874851564205 74.48300374063963 184.71698793062453 C 0.0 **** -0.24
35367 H 214.79580483906898 74.90164735871288 185.51858247742194 H 0.0 **** 0.06
35368 H 214.78616458507184 74.40737394613181 183.80857324901274 H 0.0 **** 0.06
35369 H 213.3306879890942 75.13076163204722 184.53489607578405 H 0.0 **** 0.06
35370 H 213.83944782905644 73.49167319213099 185.00585275293741 H 0.0 **** 0.06
35371 C 111.04627352857244 15.274660571281004 100.61309047306895 C 0.0 **** -0.24
35372 H 111.51340784864391 14.604923582524464 101.33517913159938 H 0.0 **** 0.06
35373 H 111.5927242533478 16.217753131886184 100.58638513508447 H 0.0 **** 0.06
35374 H 110.01351249562106 15.461711218638868 100.90646878379118 H 0.0 **** 0.06
35375 H 111.06581904434938 14.814001730003952 99.62600206690104 H 0.0 **** 0.06
35376 C 54.28546041442894 141.91420212670994 5.496418560205569 C 0.0 **** -0.24
35377 H 54.521441515707295 142.8372650215024 6.025206737067876 H 0.0 **** 0.06
35378 H 53.52120516196436 142.11089557487838 4.743594704856619 H 0.0 **** 0.06
35379 H 53.91481025420387 141.17388676475014 6.205816734900253 H 0.0 **** 0.06
35380 H 55.18407181550316 141.5330608388603 5.010950733146927 H 0.0 **** 0.06
35381 C 213.51613786743522 45.11093334640279 130.93136538514744 C 0.0 **** -0.24
35382 H 214.22605389656323 44.6575212704512 130.23875374975023 H 0.0 **** 0.06
35383 H 212.6095180782422 45.38611891902474 130.39219787873873 H 0.0 **** 0.06
35384 H 213.96056928631222 46.00221524567411 131.3740632763853 H 0.0 **** 0.06
35385 H 213.26995131978427 44.39864592481548 131.71820268220188 H 0.0 **** 0.06
35386 C 55.08441328236985 169.90161355772142 205.8072059480574 C 0.0 **** -0.24
35387 H 54.89144542737084 170.43583636153477 206.73796615013188 H 0.0 **** 0.06
35388 H 55.87409949925913 169.16699857612394 205.96864220498537 H 0.0 **** 0.06
35389 H 55.398930042498066 170.60957650517804 205.04037036566862 H 0.0 **** 0.06
35390 H 54.17583153470389 169.3945632607336 205.4842302198805 H 0.0 **** 0.06
35391 C 0.28703586714519247 19.43908523192215 181.28047281417693 C 0.0 **** -0.24
35392 H -0.22373504562969515 20.39609321873587 181.17218647686295 H 0.0 **** 0.06
35393 H 0.6476563923136496 19.10835363631341 180.30593107411943 H 0.0 **** 0.06
35394 H -0.40659059244887885 18.700590311093777 181.68109945375224 H 0.0 **** 0.06
35395 H 1.1306457650761104 19.55311826591526 181.96103724142714 H 0.0 **** 0.06
35396 C 94.21797617057923 198.63589968058753 105.72160732055424 C 0.0 **** -0.24
35397 H 94.91300350172806 199.05389068096324 106.4496428034475 H 0.0 **** 0.06
35398 H 94.5489401398777 197.63778276607695 105.43567095871471 H 0.0 **** 0.06
35399 H 94.18727311535046 199.2759012878585 104.83996601183692 H 0.0 **** 0.06
35400 H 93.22281632476178 198.57700834232924 106.16215677827394 H 0.0 **** 0.06
35401 C 179.39039186885705 32.67987316598152 214.86403794504542 C 0.0 **** -0.24
35402 H 178.66880297079928 32.47957720379199 214.07129199208973 H 0.0 **** 0.06
35403 H 180.369642048585 32.86732207696929 214.42534431491808 H 0.0 **** 0.06
35404 H 179.44817868476218 31.816403226127534 215.5280639333606 H 0.0 **** 0.06
35405 H 179.07264823119644 33.55454588438573 215.43128722683255 H 0.0 **** 0.06
35406 C 51.26995920318055 210.27058402384802 88.59916450751746 C 0.0 **** -0.24
35407 H 51.72507261062759 210.7519041025715 87.73364680017909 H 0.0 **** 0.06
35408 H 51.047379149834285 209.23002093740246 88.36169928938943 H 0.0 **** 0.06
35409 H 50.346792943755844 210.78938231761754 88.8606038928923 H 0.0 **** 0.06
35410 H 51.960115553684645 210.3114232462125 89.44149371647389 H 0.0 **** 0.06
35411 C 68.48668764827636 170.27310005032302 184.585550601859 C 0.0 **** -0.24
35412 H 68.21897379308251 170.9110593776145 185.426848585352 H 0.0 **** 0.06
35413 H 68.59043982482467 169.24388782158172 184.92918239770358 H 0.0 **** 0.06
35414 H 69.43181243653311 170.61055942786368 184.1596146353491 H 0.0 **** 0.06
35415 H 67.70634843784836 170.32633684501593 183.82645067746338 H 0.0 **** 0.06
35416 C 56.430002813913234 51.06805227784619 183.52395568425982 C 0.0 **** -0.24
35417 H 56.262761744210366 52.089140484818955 183.18254915431532 H 0.0 **** 0.06
35418 H 57.45575293704664 50.96725125144641 183.88074273611176 H 0.0 **** 0.06
35419 H 56.26286433662867 50.37670708224698 182.698534172826 H 0.0 **** 0.06
35420 H 55.739067414375086 50.838121004459424 184.33535018056583 H 0.0 **** 0.06
35421 C 40.012642300980616 170.64425228606373 162.20405504158228 C 0.0 **** -0.24
35422 H 39.36553315513636 169.99065254710806 162.78917748586116 H 0.0 **** 0.06
35423 H 39.41810623880555 171.16829488308377 161.45549150407714 H 0.0 **** 0.06
35424 H 40.778549196707374 170.04809208253232 161.70830836223334 H 0.0 **** 0.06
35425 H 40.48768271927267 171.37057749019326 162.86431215306936 H 0.0 **** 0.06
35426 C 181.2781873625789 81.86174471159784 0.18425155559901896 C 0.0 **** -0.24
35427 H 180.58301130881947 81.88199690791545 1.0239028222045476 H 0.0 **** 0.06
35428 H 182.1534229554104 82.46694373557894 0.4233121294417117 H 0.0 **** 0.06
35429 H 180.78765277223704 82.26400092909869 -0.7020237315980467 H 0.0 **** 0.06
35430 H 181.58760999131346 80.8339190570939 -0.006814420231961549 H 0.0 **** 0.06
35431 C 141.99826103101861 163.9667046599061 204.82157492375828 C 0.0 **** -0.24
35432 H 142.4093318543683 164.7272754457732 205.4840694254477 H 0.0 **** 0.06
35433 H 142.73813708734673 163.18140306586153 204.66638160567027 H 0.0 **** 0.06
35434 H 141.741878623881 164.4195099681899 203.86354905833355 H 0.0 **** 0.06
35435 H 141.10228577470758 163.53739920287262 205.27159639722612 H 0.0 **** 0.06
35436 C 68.226181777645 48.28950461529335 143.27606730784845 C 0.0 **** -0.24
35437 H 69.04369075927386 47.88109949981276 142.68313270835364 H 0.0 **** 0.06
35438 H 67.78207269931522 47.49591167139863 143.8782230420465 H 0.0 **** 0.06
35439 H 67.47009913944044 48.70846922780703 142.61241918860918 H 0.0 **** 0.06
35440 H 68.607684170141 49.07271133561218 143.93125376720508 H 0.0 **** 0.06
35441 C 22.248797770383078 148.3267142003441 151.75217306517857 C 0.0 **** -0.24
35442 H 22.762251058758977 147.7452867772543 150.98697962955413 H 0.0 **** 0.06
35443 H 21.820451254636623 149.2221813917959 151.3011310276204 H 0.0 **** 0.06
35444 H 22.959509143678588 148.61447040673806 152.52663793821102 H 0.0 **** 0.06
35445 H 21.4539853412397 147.72590158892257 152.19379681777116 H 0.0 **** 0.06
35446 C 66.3306804833147 205.76872879617565 45.901209900171466 C 0.0 **** -0.24
35447 H 66.10341419808384 206.36266551651448 46.78683869117327 H 0.0 **** 0.06
35448 H 66.61656803418165 204.7615922044003 46.20194118086005 H 0.0 **** 0.06
35449 H 67.15186214215814 206.231664785232 45.35414492511052 H 0.0 **** 0.06
35450 H 65.44958605792095 205.72148256410532 45.2604544389207 H 0.0 **** 0.06
35451 C 26.355560255181473 150.0493185142928 171.34267767524005 C 0.0 **** -0.24
35452 H 25.425452568150376 149.93884591227288 170.78510289734672 H 0.0 **** 0.06
35453 H 27.128350639006555 150.4461257865596 170.68317166803422 H 0.0 **** 0.06
35454 H 26.667526578144532 149.07748967956667 171.7249221811636 H 0.0 **** 0.06
35455 H 26.201016439267107 150.73496623796916 172.17507152664433 H 0.0 **** 0.06
35456 C 159.48109318774254 137.2095389915437 65.87017505820478 C 0.0 **** -0.24
35457 H 160.0521582777356 136.6865790983469 65.10311590291099 H 0.0 **** 0.06
35458 H 158.77848571949895 137.89520854419726 65.39601142004477 H 0.0 **** 0.06
35459 H 160.16200963248684 137.77252328413948 66.50978950878516 H 0.0 **** 0.06
35460 H 158.93371348007292 136.4846684475712 66.47237044175665 H 0.0 **** 0.06
35461 C 21.77110895566645 44.150702258175954 44.77636019819721 C 0.0 **** -0.24
35462 H 22.3585080284206 43.900770618135596 45.65993851571508 H 0.0 **** 0.06
35463 H 22.332114855743157 43.885199460369904 43.88089843820006 H 0.0 **** 0.06
35464 H 21.56152926824747 45.221047391885804 44.771086561887216 H 0.0 **** 0.06
35465 H 20.8324717069588 43.597291157050165 44.79629505079089 H 0.0 **** 0.06
35466 C 210.89732997926143 166.18930480510014 46.20035344886725 C 0.0 **** -0.24
35467 H 211.4486733960166 166.5545228555347 47.06639521290589 H 0.0 **** 0.06
35468 H 210.30987218848318 167.00217326450684 45.774644239125564 H 0.0 **** 0.06
35469 H 210.23272914115384 165.3817736984143 46.50871912097216 H 0.0 **** 0.06
35470 H 211.5987791571057 165.81752482701182 45.45409691166674 H 0.0 **** 0.06
35471 C 181.24578538798596 65.10279862528756 151.43881257833743 C 0.0 **** -0.24
35472 H 180.75154878201764 65.98580433052643 151.03281719617257 H 0.0 **** 0.06
35473 H 182.24613588272717 65.01922309677997 151.01337966336632 H 0.0 **** 0.06
35474 H 180.66705797607062 64.21401603710541 151.18590302431107 H 0.0 **** 0.06
35475 H 181.31746814687102 65.19288447767377 152.5223785641041 H 0.0 **** 0.06
35476 C 120.63841487923732 129.4194089983875 109.29377912138666 C 0.0 **** -0.24
35477 H 121.59119941573495 129.65124435276567 108.81747760204242 H 0.0 **** 0.06
35478 H 120.03702204898993 128.8056345276458 108.62272792392316 H 0.0 **** 0.06
35479 H 120.10799417845102 130.34540950549996 109.51308497537185 H 0.0 **** 0.06
35480 H 120.81923191334953 128.87532582335922 110.22048340286584 H 0.0 **** 0.06
35481 C 174.61507843464528 156.0089211600813 35.01763316029006 C 0.0 **** -0.24
35482 H 175.5721421941194 155.5069285475886 35.16201642118479 H 0.0 **** 0.06
35483 H 174.06261029450292 156.01520082617947 35.95718712639335 H 0.0 **** 0.06
35484 H 174.03817367262698 155.47942052594095 34.25965420001472 H 0.0 **** 0.06
35485 H 174.78960791099473 157.03423905077244 34.69064565136581 H 0.0 **** 0.06
35486 C 207.86253142316212 117.58882841970039 155.3425261156122 C 0.0 **** -0.24
35487 H 208.80685108243256 117.05359826695427 155.44191525557068 H 0.0 **** 0.06
35488 H 207.64419248798706 117.74655104489081 154.28631362748757 H 0.0 **** 0.06
35489 H 207.9357325620763 118.55221388621091 155.84751045123375 H 0.0 **** 0.06
35490 H 207.06296892008896 117.0005308658577 155.79433907764798 H 0.0 **** 0.06
35491 C 153.36295204164918 192.6496469653758 124.40833193106532 C 0.0 **** -0.24
35492 H 152.61821384012904 191.8534071136969 124.44411289170442 H 0.0 **** 0.06
35493 H 154.12088671860977 192.40482005107333 123.6648429072467 H 0.0 **** 0.06
35494 H 153.83320987509245 192.7506076002357 125.38740429188859 H 0.0 **** 0.06
35495 H 152.87804669263977 193.58861556931458 124.13972457029065 H 0.0 **** 0.06
35496 C 155.30068826321008 40.958709133014395 70.97220627493182 C 0.0 **** -0.24
35497 H 155.5416414632915 39.94327715837085 71.28661619113264 H 0.0 **** 0.06
35498 H 154.37412521351933 40.9511054540061 70.39680010340861 H 0.0 **** 0.06
35499 H 156.10930269516547 41.34970633003917 70.35419491686336 H 0.0 **** 0.06
35500 H 155.17646814275577 41.591470431828725 71.85121346677165 H 0.0 **** 0.06
35501 C 203.22770000399365 110.7548446224406 196.0819144443945 C 0.0 **** -0.24
35502 H 203.16736459350594 111.6908656044655 195.52701491375333 H 0.0 **** 0.06
35503 H 202.62878962322773 110.83237667049485 196.98974333069626 H 0.0 **** 0.06
35504 H 204.26597757614712 110.55747785766022 196.34765147851033 H 0.0 **** 0.06
35505 H 202.8493276741028 109.94086260956959 195.464088588552 H 0.0 **** 0.06
35506 C 82.55236044494535 118.92363152038018 61.71794976479693 C 0.0 **** -0.24
35507 H 82.67967997190021 119.08447374655532 60.64755981336528 H 0.0 **** 0.06
35508 H 81.5160502176783 119.11903213301304 61.99384440484009 H 0.0 **** 0.06
35509 H 83.20783794002728 119.60038172071671 62.267231639272126 H 0.0 **** 0.06
35510 H 82.80611542410958 117.89285580583743 61.96300476648561 H 0.0 **** 0.06
35511 C 56.87371587086267 186.3196168786464 38.6069604927625 C 0.0 **** -0.24
35512 H 56.0985479424391 186.6333379342266 37.90770523076617 H 0.0 **** 0.06
35513 H 57.83756598276278 186.30656475273503 38.09791359520625 H 0.0 **** 0.06
35514 H 56.64478865126978 185.3207039419811 38.977946214495745 H 0.0 **** 0.06
35515 H 56.91284523729456 187.01766117719058 39.44296717925589 H 0.0 **** 0.06
35516 C 167.46136647536738 32.04073545052725 24.076966395556454 C 0.0 **** -0.24
35517 H 167.2930170332155 31.015369088765794 24.406096195433364 H 0.0 **** 0.06
35518 H 167.49422459965555 32.700334049147244 24.94479770923695 H 0.0 **** 0.06
35519 H 166.64937676683346 32.348459729602254 23.416993939242616 H 0.0 **** 0.06
35520 H 168.4088475017649 32.09877893459385 23.5399777383129 H 0.0 **** 0.06
35521 C 81.83745224801908 77.34594537568717 120.69960232052108 C 0.0 **** -0.24
35522 H 80.89737902815648 77.77090286731601 120.34707059601078 H 0.0 **** 0.06
35523 H 82.65255056625762 78.03378689691795 120.47591749647756 H 0.0 **** 0.06
35524 H 82.01609129459979 76.39392817077965 120.19840226854672 H 0.0 **** 0.06
35525 H 81.78179445469272 77.18483465428613 121.77606118054939 H 0.0 **** 0.06
35526 C 194.589138280169 99.14727333528026 17.276386078077678 C 0.0 **** -0.24
35527 H 195.3932803180346 98.49471088333013 17.616556575805276 H 0.0 **** 0.06
35528 H 193.63930798384933 98.61475972349984 17.334505054948053 H 0.0 **** 0.06
35529 H 194.77628340043688 99.44614163487967 16.245015834388695 H 0.0 **** 0.06
35530 H 194.54818813573058 100.03326593085961 17.910769526673974 H 0.0 **** 0.06
35531 C 31.889064474331065 213.4911097780963 12.344837742797353 C 0.0 **** -0.24
35532 H 30.98689598844264 213.89571712774972 12.802635773528621 H 0.0 **** 0.06
35533 H 32.58694176316173 213.18697209037308 13.125560939294928 H 0.0 **** 0.06
35534 H 32.352521643682906 214.25430358169217 11.71945481100775 H 0.0 **** 0.06
35535 H 31.62946457501957 212.62780679250457 11.732996287925886 H 0.0 **** 0.06
35536 C 18.14712805084035 104.23489481407837 148.31110558632946 C 0.0 **** -0.24
35537 H 18.700067831209083 104.90612886287123 148.96895025178492 H 0.0 **** 0.06
35538 H 18.732367728346844 104.04650151836957 147.41024397254841 H 0.0 **** 0.06
35539 H 17.197632091472414 104.69562285093697 148.03846986499724 H 0.0 **** 0.06
35540 H 17.960240735325556 103.29361767357217 148.82799204649086 H 0.0 **** 0.06
35541 C 140.5251005362707 143.42871289752145 210.90997208892782 C 0.0 **** -0.24
35542 H 139.57467736738528 142.9258205336206 210.72991594241995 H 0.0 **** 0.06
35543 H 140.61583857887206 144.28499022103892 210.2407688989889 H 0.0 **** 0.06
35544 H 141.34402887202117 142.73464451298418 210.7250516487923 H 0.0 **** 0.06
35545 H 140.56481964566967 143.77029809709387 211.944483609747 H 0.0 **** 0.06
35546 C 188.15290346948257 104.30347788377351 60.121850398871686 C 0.0 **** -0.24
35547 H 187.96801813659403 103.27553217569515 59.80799821572049 H 0.0 **** 0.06
35548 H 188.94246877741136 104.3159057349438 60.8743431487938 H 0.0 **** 0.06
35549 H 187.24089935210202 104.72353404585517 60.54368260958648 H 0.0 **** 0.06
35550 H 188.46306902454666 104.895668013194 59.260904804764834 H 0.0 **** 0.06
35551 C 118.20223661484512 91.92412766963763 74.62077860841045 C 0.0 **** -0.24
35552 H 117.54865348239629 91.05832991591042 74.7204051688556 H 0.0 **** 0.06
35553 H 118.88562821642107 91.96431615266654 75.46977505360819 H 0.0 **** 0.06
35554 H 117.60007057932562 92.83246886613797 74.59560964390808 H 0.0 **** 0.06
35555 H 118.77512018419874 91.84246996621773 73.69656998059106 H 0.0 **** 0.06
35556 C 111.40293576592092 192.0153521719053 93.26468851196769 C 0.0 **** -0.24
35557 H 112.18593013871043 191.67420387844464 93.9405611032049 H 0.0 **** 0.06
35558 H 110.5555135611196 192.38160371256106 93.84561929982364 H 0.0 **** 0.06
35559 H 111.08139925369494 191.1864725187125 92.63432518569412 H 0.0 **** 0.06
35560 H 111.78919436401605 192.8203827083892 92.6388320731378 H 0.0 **** 0.06
35561 C 23.947072163864647 129.03736881166265 89.03618423699773 C 0.0 **** -0.24
35562 H 24.304697338170115 128.0082947568228 88.99273343201288 H 0.0 **** 0.06
35563 H 22.956241107634696 129.09708947415737 88.58382439315415 H 0.0 **** 0.06
35564 H 24.634771071865373 129.68349487882256 88.49072988419289 H 0.0 **** 0.06
35565 H 23.89237747417951 129.35972343650553 90.07516936416225 H 0.0 **** 0.06
35566 C 174.37731532499308 92.63782268702023 151.43284656894565 C 0.0 **** -0.24
35567 H 173.83792779590382 91.83580500320001 150.92808337748994 H 0.0 **** 0.06
35568 H 173.74401742317227 93.06825122775173 152.20835554345535 H 0.0 **** 0.06
35569 H 174.64268995866632 93.40862363501277 150.70914473640607 H 0.0 **** 0.06
35570 H 175.2835220260173 92.23575991652605 151.88451686838096 H 0.0 **** 0.06
35571 C 115.65290547353051 32.316649198389925 89.68661561018347 C 0.0 **** -0.24
35572 H 116.4101105367077 31.868778204311113 89.04395770568841 H 0.0 **** 0.06
35573 H 116.00679219712929 32.31791656284962 90.71775659174794 H 0.0 **** 0.06
35574 H 114.73140557963264 31.739177485289915 89.61906202060204 H 0.0 **** 0.06
35575 H 115.46538838380333 33.34195187333718 89.3661208055458 H 0.0 **** 0.06
35576 C 22.209802549074055 190.7435706526422 102.96472125939424 C 0.0 **** -0.24
35577 H 22.62619676755837 191.27606348378717 102.10864217128726 H 0.0 **** 0.06
35578 H 22.88868491762817 190.83107276162647 103.81278036178223 H 0.0 **** 0.06
35579 H 22.080217928749235 189.69201130923523 102.7087292475919 H 0.0 **** 0.06
35580 H 21.24366817632071 191.17610177902284 103.2255916156604 H 0.0 **** 0.06
35581 C 112.00781322685363 127.84960394749059 148.7086267033635 C 0.0 **** -0.24
35582 H 112.28987353396683 126.80747373006413 148.5579325325317 H 0.0 **** 0.06
35583 H 112.74370181871448 128.49739587353656 148.23000913804918 H 0.0 **** 0.06
35584 H 111.97249506299737 128.06666342161844 149.77589187052598 H 0.0 **** 0.06
35585 H 111.02662170355312 128.02708469030665 148.26804876325946 H 0.0 **** 0.06
35586 C 116.04989653591282 210.21065904520282 121.1285848282976 C 0.0 **** -0.24
35587 H 115.56353977028776 209.38479183959646 120.61018770360484 H 0.0 **** 0.06
35588 H 115.84946817316701 211.1413202880446 120.59804524110832 H 0.0 **** 0.06
35589 H 117.12498098483813 210.03549039164525 121.1626362524086 H 0.0 **** 0.06
35590 H 115.66073135617451 210.27998676914206 122.14524617602159 H 0.0 **** 0.06
35591 C 131.36571838287233 104.09397012000306 185.54562824530845 C 0.0 **** -0.24
35592 H 131.04528905572647 103.3583126096263 186.2834976199587 H 0.0 **** 0.06
35593 H 131.12943534585833 103.73208524255494 184.54463932935914 H 0.0 **** 0.06
35594 H 132.44088020699053 104.2485125930553 185.63263284966456 H 0.0 **** 0.06
35595 H 130.8471656715315 105.03653280414386 185.72393367381065 H 0.0 **** 0.06
35596 C 135.21833536942017 196.78859974171857 97.79760830042714 C 0.0 **** -0.24
35597 H 136.1283864271599 196.88200736773027 97.20590972335408 H 0.0 **** 0.06
35598 H 135.17139451399493 195.7921041072044 98.23636351298607 H 0.0 **** 0.06
35599 H 134.3499596528386 196.9459608449936 97.15736206206829 H 0.0 **** 0.06
35600 H 135.2246937675249 197.53527458394797 98.59217887692533 H 0.0 **** 0.06
35601 C 160.93795725218342 174.89188392385927 151.00454863201338 C 0.0 **** -0.24
35602 H 159.9718262946261 174.85625716895572 150.50176952242077 H 0.0 **** 0.06
35603 H 161.73533217791203 174.83353568489517 150.26378966672615 H 0.0 **** 0.06
35604 H 161.01966720380065 174.05186262860533 151.69380245448752 H 0.0 **** 0.06
35605 H 161.02405131361988 175.82689724510894 151.55858928679987 H 0.0 **** 0.06
35606 C 28.299039071993022 181.6109211535189 92.98445907264157 C 0.0 **** -0.24
35607 H 28.858213121400695 181.793026131334 92.06676179436754 H 0.0 **** 0.06
35608 H 27.70985834499936 180.6999378856617 92.87705934720545 H 0.0 **** 0.06
35609 H 27.634704642535212 182.45270443222793 93.17827033136525 H 0.0 **** 0.06
35610 H 28.994365470416724 181.4979011672857 93.8167527910178 H 0.0 **** 0.06
35611 C 45.99799456344357 20.318385812640827 103.99854511988916 C 0.0 **** -0.24
35612 H 46.565973651854506 21.24753705575955 104.04055526342897 H 0.0 **** 0.06
35613 H 46.679001598135926 19.472264244055793 104.08636786589851 H 0.0 **** 0.06
35614 H 45.46554332013534 20.260896883928467 103.04861677975889 H 0.0 **** 0.06
35615 H 45.27963840513277 20.29448301411412 104.81865379625496 H 0.0 **** 0.06
35616 C 34.00404153889207 74.95260619284215 33.51988162017784 C 0.0 **** -0.24
35617 H 33.7666638551448 74.02290687720739 33.00255371829577 H 0.0 **** 0.06
35618 H 34.191569551378905 74.74354759814594 34.573032551158434 H 0.0 **** 0.06
35619 H 33.16521301681573 75.64258720711302 33.42902434320597 H 0.0 **** 0.06
35620 H 34.892390072757934 75.39947213958044 33.072626818059845 H 0.0 **** 0.06
35621 C 125.47091392055444 164.87270564753084 158.77341317010422 C 0.0 **** -0.24
35622 H 125.11188171936374 164.02973441354473 159.36380754109103 H 0.0 **** 0.06
35623 H 126.53998659615081 164.76055337021862 158.59170014188393 H 0.0 **** 0.06
35624 H 125.2890108731844 165.7999911512141 159.31636252920953 H 0.0 **** 0.06
35625 H 124.94085621521373 164.9000666667643 157.82033847550082 H 0.0 **** 0.06
35626 C 104.14930177388665 136.03412332942594 203.82355984623624 C 0.0 **** -0.24
35627 H 103.26678984162315 135.6073756988393 203.34696223232612 H 0.0 **** 0.06
35628 H 105.04602340657836 135.5945789074471 203.38732121551146 H 0.0 **** 0.06
35629 H 104.12205197670436 135.8232482231228 204.89224841698947 H 0.0 **** 0.06
35630 H 104.1594876054349 137.1130771354978 203.6668943379158 H 0.0 **** 0.06
35631 C 28.22428343373761 93.45770210196169 73.55731066683735 C 0.0 **** -0.24
35632 H 27.2973449532755 93.8732055217388 73.9522221674916 H 0.0 **** 0.06
35633 H 28.891884001634324 94.2695806604169 73.2677992956002 H 0.0 **** 0.06
35634 H 28.00485552045417 92.83970633515368 72.68696490181016 H 0.0 **** 0.06
35635 H 28.704508777460347 92.84756035899387 74.32377256904878 H 0.0 **** 0.06
35636 C 123.51864566029558 128.48563075153726 210.18720211570624 C 0.0 **** -0.24
35637 H 122.90100032006607 129.38193252913618 210.12828270113516 H 0.0 **** 0.06
35638 H 124.53819985287093 128.76417286652003 210.45551106370536 H 0.0 **** 0.06
35639 H 123.52157473210958 127.98251944427368 209.22081474430954 H 0.0 **** 0.06
35640 H 123.11325438064917 127.81481175903228 210.9451268731832 H 0.0 **** 0.06
35641 C 133.79304844083885 50.88641157894105 110.24619903095642 C 0.0 **** -0.24
35642 H 132.7700945758528 50.740638463418605 109.90085180566864 H 0.0 **** 0.06
35643 H 134.08378630825553 51.926201967837045 110.0921419029007 H 0.0 **** 0.06
35644 H 134.46246863584486 50.23416495645128 109.68541201129527 H 0.0 **** 0.06
35645 H 133.85534584163418 50.64473959625158 111.30725172690522 H 0.0 **** 0.06
35646 C 191.91467554351476 74.5839905655373 123.6173797559576 C 0.0 **** -0.24
35647 H 192.36528705075054 73.75212767633809 124.1593036900896 H 0.0 **** 0.06
35648 H 192.40242213211545 75.51393087629094 123.91085621577407 H 0.0 **** 0.06
35649 H 190.8529104167531 74.63902217569898 123.85454520249162 H 0.0 **** 0.06
35650 H 192.04113486782038 74.42924277152889 122.54581300686534 H 0.0 **** 0.06
35651 C 107.44819360725496 21.278887139312374 154.65014649485403 C 0.0 **** -0.24
35652 H 107.17273947568098 22.242121204550983 155.0810192309396 H 0.0 **** 0.06
35653 H 106.7390753061131 21.016627668678694 153.86500743634593 H 0.0 **** 0.06
35654 H 107.4305664221237 20.515638354273236 155.42750142976507 H 0.0 **** 0.06
35655 H 108.45045838069278 21.34474924779215 154.2267074266868 H 0.0 **** 0.06
35656 C 115.98926505476221 44.94829940509197 13.830455255722995 C 0.0 **** -0.24
35657 H 114.9153334511169 44.77965467046886 13.752192893617348 H 0.0 **** 0.06
35658 H 116.22842580944818 45.31145017984932 14.830475656549538 H 0.0 **** 0.06
35659 H 116.29531542888178 45.68893782257584 13.091616951648462 H 0.0 **** 0.06
35660 H 116.5170652150333 44.01276407577069 13.647551563373554 H 0.0 **** 0.06
35661 C 172.55324539802388 27.233672821895198 24.466019161524216 C 0.0 **** -0.24
35662 H 171.5812170820186 27.088772847806467 24.938052101408772 H 0.0 **** 0.06
35663 H 172.9755791888128 26.264520645653363 24.199577096978516 H 0.0 **** 0.06
35664 H 173.2209989723684 27.742383562419718 25.16050218089849 H 0.0 **** 0.06
35665 H 172.43434114296866 27.837420155836128 23.56726611268452 H 0.0 **** 0.06
35666 C 109.21463743113286 193.74598637679676 143.5913386754263 C 0.0 **** -0.24
35667 H 108.88903765979713 192.71271998579522 143.71067218823657 H 0.0 **** 0.06
35668 H 110.1093060173789 193.91510535611854 144.1907692656336 H 0.0 **** 0.06
35669 H 108.42199421917987 194.4174498806595 143.92267483737373 H 0.0 **** 0.06
35670 H 109.43791414856129 193.93788279196207 142.54177809473902 H 0.0 **** 0.06
35671 C 200.44053166959517 4.405129516235341 131.4597168306414 C 0.0 **** -0.24
35672 H 200.50829406547103 5.125678131332279 132.27553060137785 H 0.0 **** 0.06
35673 H 199.4177016880326 4.0329543977824684 131.38816492144383 H 0.0 **** 0.06
35674 H 201.1168642077579 3.573207215746173 131.65216862787184 H 0.0 **** 0.06
35675 H 200.71615728423382 4.8898319451835235 130.5229755550145 H 0.0 **** 0.06
35676 C 142.63844800384248 166.99925695843547 100.37719996839182 C 0.0 **** -0.24
35677 H 142.83212478206786 167.0806044034859 99.30819762277186 H 0.0 **** 0.06
35678 H 143.5717331992114 166.78866291812 100.9005001210683 H 0.0 **** 0.06
35679 H 141.92986212840663 166.19081355720095 100.55798842251555 H 0.0 **** 0.06
35680 H 142.2213514443933 167.93698810961882 100.74328038532921 H 0.0 **** 0.06
35681 C 43.71073955849201 64.16645637983048 71.50749606332715 C 0.0 **** -0.24
35682 H 44.22155985760115 64.88777704224098 72.145979637283 H 0.0 **** 0.06
35683 H 43.40334075218978 64.6547165410524 70.58240680529173 H 0.0 **** 0.06
35684 H 42.83190821373958 63.78219044119054 72.02551275868746 H 0.0 **** 0.06
35685 H 44.38722642261635 63.34309496890043 71.27809107706975 H 0.0 **** 0.06
35686 C 86.36569189040506 138.45889430759757 72.74997693586947 C 0.0 **** -0.24
35687 H 85.90517032950532 139.10244351164891 73.49927890675072 H 0.0 **** 0.06
35688 H 86.47365000644106 137.451972699247 73.15358449561957 H 0.0 **** 0.06
35689 H 87.34828674751157 138.85288572839 72.48816734186344 H 0.0 **** 0.06
35690 H 85.73751500621029 138.43011248690237 71.86035537330342 H 0.0 **** 0.06
35691 C 60.40667670111446 176.39141976517766 172.0031892340272 C 0.0 **** -0.24
35692 H 60.58014428321792 175.31572110552892 171.99965179407744 H 0.0 **** 0.06
35693 H 59.669452752541986 176.6381697464496 172.7666317127065 H 0.0 **** 0.06
35694 H 60.03742747059147 176.7029261250886 171.02563517145595 H 0.0 **** 0.06
35695 H 61.34152926260924 176.90867990873687 172.21923962216246 H 0.0 **** 0.06
35696 C 36.5878302330258 209.09761534926676 144.7920342569248 C 0.0 **** -0.24
35697 H 35.67225564710455 209.16201411011542 145.38109548987035 H 0.0 **** 0.06
35698 H 37.41464121988274 208.7981647439251 145.43756589500572 H 0.0 **** 0.06
35699 H 36.80438560988307 210.06977258862668 144.3505252680378 H 0.0 **** 0.06
35700 H 36.45917831081303 208.35935544155575 144.00066132084373 H 0.0 **** 0.06
35701 C 190.3701275342859 98.43591096838382 157.7909843376487 C 0.0 **** -0.24
35702 H 190.1629464019765 97.6010978726603 157.12173311124587 H 0.0 **** 0.06
35703 H 189.75280557723943 98.34636517925419 158.68456381422476 H 0.0 **** 0.06
35704 H 190.14117985035045 99.37383320997306 157.28347474151252 H 0.0 **** 0.06
35705 H 191.4226377803078 98.42323441976383 158.07208503911676 H 0.0 **** 0.06
35706 C 107.65528373599552 40.570934934691394 17.276439521741295 C 0.0 **** -0.24
35707 H 106.9512987262187 40.459010676883835 18.101322671550975 H 0.0 **** 0.06
35708 H 107.69778492306214 41.617398087340604 16.975549767108006 H 0.0 **** 0.06
35709 H 107.32585969919366 39.962916261353314 16.433478523138447 H 0.0 **** 0.06
35710 H 108.64440305086468 40.24316125448358 17.595886743850997 H 0.0 **** 0.06
35711 C 21.50066715898808 109.63643217481068 131.3718001633144 C 0.0 **** -0.24
35712 H 21.921436933487925 109.83547571595354 132.357327737427 H 0.0 **** 0.06
35713 H 22.196819792743 109.02343248025984 130.79741435292522 H 0.0 **** 0.06
35714 H 21.33306904642916 110.57956725885786 130.85146928152488 H 0.0 **** 0.06
35715 H 20.554488914622084 109.10746910558281 131.47996168646063 H 0.0 **** 0.06
35716 C 131.47316607457088 166.69619889088548 55.67114144172956 C 0.0 **** -0.24
35717 H 132.23507612046745 167.30797755045134 55.1886146735481 H 0.0 **** 0.06
35718 H 131.67993844326884 165.6431198496269 55.482520542562895 H 0.0 **** 0.06
35719 H 130.4925398477822 166.95251868465314 55.26897665011205 H 0.0 **** 0.06
35720 H 131.48495845944439 166.88224689273827 56.74536917724981 H 0.0 **** 0.06
35721 C 19.21640217388307 48.807673934283116 176.0062552216528 C 0.0 **** -0.24
35722 H 20.227924271803204 49.05046214883697 175.680446891705 H 0.0 **** 0.06
35723 H 18.691660534867196 49.72434210764459 176.27548153748864 H 0.0 **** 0.06
35724 H 19.263311581479826 48.147019110339784 176.87136320934104 H 0.0 **** 0.06
35725 H 18.684903942419623 48.30907883747739 175.19665490694592 H 0.0 **** 0.06
35726 C 182.33516109880267 24.49027799403234 205.95002140360663 C 0.0 **** -0.24
35727 H 181.30097634542562 24.830939670409208 205.89476143674227 H 0.0 **** 0.06
35728 H 182.589371045084 24.270268608758442 206.9877325099559 H 0.0 **** 0.06
35729 H 182.99514584887248 25.27018507042584 205.57142900712427 H 0.0 **** 0.06
35730 H 182.4532978745222 23.590098427455445 205.3477186816048 H 0.0 **** 0.06
35731 C 72.61488628802464 69.2119935348799 115.2548515211371 C 0.0 **** -0.24
35732 H 72.06328950332114 68.94985435438433 116.15692754361795 H 0.0 **** 0.06
35733 H 73.65263616890512 68.89653663859337 115.35858797889556 H 0.0 **** 0.06
35734 H 72.57573898641273 70.29115582865482 115.10645216173167 H 0.0 **** 0.06
35735 H 72.16593795216197 68.71108189161943 114.39654500717573 H 0.0 **** 0.06
35736 C 100.59645406170887 123.29346765811208 70.379342045256 C 0.0 **** -0.24
35737 H 101.06570946982868 124.16564154716842 69.92505888290044 H 0.0 **** 0.06
35738 H 99.78532552843092 123.61657456770122 71.03221383362511 H 0.0 **** 0.06
35739 H 101.33653954271404 122.74503078461423 70.96242661883277 H 0.0 **** 0.06
35740 H 100.19794214894102 122.64619436046807 69.59681683518467 H 0.0 **** 0.06
35741 C 4.552263339743881 90.24620404116347 84.93286404632214 C 0.0 **** -0.24
35742 H 5.403605812731897 90.61162433292778 84.35841287848122 H 0.0 **** 0.06
35743 H 4.732835091023368 90.41198575179273 85.99536883174072 H 0.0 **** 0.06
35744 H 4.4208299934533315 89.1800556784426 84.74887742818716 H 0.0 **** 0.06
35745 H 3.652267352413915 90.78060248752 84.62947872736889 H 0.0 **** 0.06
35746 C 144.47350291354473 201.24831267380065 68.87497867722583 C 0.0 **** -0.24
35747 H 145.17305874045354 200.90520226205774 68.11300884826284 H 0.0 **** 0.06
35748 H 143.4541649501149 201.16334121896645 68.49646694792484 H 0.0 **** 0.06
35749 H 144.68473692513288 202.28966309366217 69.1189758901301 H 0.0 **** 0.06
35750 H 144.58142068937417 200.63610537227277 69.76988934138758 H 0.0 **** 0.06
35751 C 35.8428518865737 144.35556507483648 72.00043250875287 C 0.0 **** -0.24
35752 H 36.300958695299045 143.614804017342 72.65589978196782 H 0.0 **** 0.06
35753 H 34.793549735390926 144.1027140769064 71.84466818626733 H 0.0 **** 0.06
35754 H 36.362065659321374 144.36276732526852 71.04184013983122 H 0.0 **** 0.06
35755 H 35.91537480671005 145.34120841707932 72.4607777859408 H 0.0 **** 0.06
35756 C 152.57738619330723 62.228503537683196 163.0802200778133 C 0.0 **** -0.24
35757 H 153.21086969207892 63.057053819213536 162.76251072138723 H 0.0 **** 0.06
35758 H 152.8559411653826 61.327613763153465 162.53408010718164 H 0.0 **** 0.06
35759 H 151.53409220010968 62.47055335425887 162.87512574863547 H 0.0 **** 0.06
35760 H 152.70777546949626 62.061401499569115 164.14983201552087 H 0.0 **** 0.06
35761 C 177.8191299347223 148.93997373340835 158.09408951422733 C 0.0 **** -0.24
35762 H 178.7619748935743 149.02552888197687 158.63274785531218 H 0.0 **** 0.06
35763 H 177.77829647040448 149.69720289112564 157.3103052395527 H 0.0 **** 0.06
35764 H 176.99038016331565 149.08697962875283 158.7858967140172 H 0.0 **** 0.06
35765 H 177.74673127014518 147.94879407737926 157.6443546026975 H 0.0 **** 0.06
35766 C 183.7970398901192 32.287124343968756 81.74134241263641 C 0.0 **** -0.24
35767 H 184.3331654441249 32.12830256914535 80.8063551668834 H 0.0 **** 0.06
35768 H 184.47761073059254 32.13382145102827 82.58043402604937 H 0.0 **** 0.06
35769 H 182.97019833178464 31.581228188294062 81.81040592071264 H 0.0 **** 0.06
35770 H 183.40975852109582 33.306116812631785 81.76937175245087 H 0.0 **** 0.06
35771 C 58.49078905968743 186.7673827982953 171.85999385730923 C 0.0 **** -0.24
35772 H 57.745917948912776 187.5450916327238 172.0299707426065 H 0.0 **** 0.06
35773 H 59.08333084468768 187.01752909415765 170.98038929378976 H 0.0 **** 0.06
35774 H 57.9890797675575 185.81294801055267 171.70155411162403 H 0.0 **** 0.06
35775 H 59.14384086342338 186.693831989788 172.7302994228839 H 0.0 **** 0.06
35776 C 46.57383864581378 89.22733746190175 182.60165941614943 C 0.0 **** -0.24
35777 H 46.3365237016001 88.37321592852982 183.2368878643546 H 0.0 **** 0.06
35778 H 47.056605535914855 88.87805938129333 181.68880066835436 H 0.0 **** 0.06
35779 H 47.24635790080056 89.89977828516675 183.1347516565299 H 0.0 **** 0.06
35780 H 45.65620487447778 89.75710299229172 182.3468774055028 H 0.0 **** 0.06
35781 C 77.02164098632325 171.1167344751523 78.72857645223614 C 0.0 **** -0.24
35782 H 76.3930439661154 171.55288299423648 77.95254398938702 H 0.0 **** 0.06
35783 H 76.47490520669866 171.10315318548896 79.67269122937857 H 0.0 **** 0.06
35784 H 77.9270675294877 171.71315811100732 78.84149129180533 H 0.0 **** 0.06
35785 H 77.29027441447839 170.0979896374643 78.4487279623148 H 0.0 **** 0.06
35786 C 78.31135122914345 52.38485667452636 192.08629420563875 C 0.0 **** -0.24
35787 H 78.66340388515776 51.3590241449637 192.19302600939258 H 0.0 **** 0.06
35788 H 78.45493934881897 52.71254215104891 191.05651810247545 H 0.0 **** 0.06
35789 H 78.87606947823504 53.03428288997131 192.75638752252652 H 0.0 **** 0.06
35790 H 77.25304582114212 52.434318034286306 192.33972930569607 H 0.0 **** 0.06
35791 C 97.43445756503807 157.5708047494337 208.3142778117848 C 0.0 **** -0.24
35792 H 97.00674762465768 158.1845552616195 207.52216630777343 H 0.0 **** 0.06
35793 H 97.63033233924803 158.1908183342896 209.1892351638936 H 0.0 **** 0.06
35794 H 98.36792200569239 157.12750568471455 207.96623294511846 H 0.0 **** 0.06
35795 H 96.73283346160115 156.77869749969705 208.57795920722202 H 0.0 **** 0.06
35796 C 201.89226403783223 161.11860037099592 91.25419281301124 C 0.0 **** -0.24
35797 H 202.0692609904167 161.74493645014533 92.12767567253304 H 0.0 **** 0.06
35798 H 201.09029063681612 161.54970482543246 90.65434803112727 H 0.0 **** 0.06
35799 H 201.60660850552438 160.11691507163974 91.5767693624769 H 0.0 **** 0.06
35800 H 202.80300476377454 161.06225017814808 90.65718180931817 H 0.0 **** 0.06
35801 C 43.62812593869512 64.91540207861269 14.179867159130083 C 0.0 **** -0.24
35802 H 43.97303834913822 64.5325689372909 13.219898756469277 H 0.0 **** 0.06
35803 H 42.75505190995227 65.54959777110632 14.025427189544942 H 0.0 **** 0.06
35804 H 44.42366918275991 65.49752270753457 14.64494742750422 H 0.0 **** 0.06
35805 H 43.36141803250365 64.08051869978766 14.828430020363427 H 0.0 **** 0.06
35806 C 78.05767571259071 110.55304866831302 209.7651111875116 C 0.0 **** -0.24
35807 H 77.04055409333904 110.91890705774163 209.90808460997016 H 0.0 **** 0.06
35808 H 78.72626611205584 111.39718939439003 209.59286291165506 H 0.0 **** 0.06
35809 H 78.08555218408952 109.88647459602653 208.90384466406948 H 0.0 **** 0.06
35810 H 78.37686707018969 110.01157324295345 210.6558925218204 H 0.0 **** 0.06
35811 C 66.32999744429084 98.93658903166833 14.507641058249135 C 0.0 **** -0.24
35812 H 65.45236120566638 99.26028440578118 13.946273879910308 H 0.0 **** 0.06
35813 H 66.0216640448107 98.254668512956 15.300342807751349 H 0.0 **** 0.06
35814 H 66.82141954622492 99.8055974046389 14.945309773349265 H 0.0 **** 0.06
35815 H 67.02156397277639 98.42699000484619 13.83779429921708 H 0.0 **** 0.06
35816 C 168.3653441883775 95.86873805949324 116.57196143723873 C 0.0 **** -0.24
35817 H 169.2409184546447 95.94227514381089 115.9266885155687 H 0.0 **** 0.06
35818 H 168.63765761990436 96.16263310655444 117.58603699957628 H 0.0 **** 0.06
35819 H 168.00399126935827 94.84037388321883 116.57679114065486 H 0.0 **** 0.06
35820 H 167.58262488363084 96.52825471712492 116.19899175820176 H 0.0 **** 0.06
35821 C 74.04134977146776 213.92993204326757 160.06809742279506 C 0.0 **** -0.24
35822 H 72.98096178288966 214.05271307066775 159.84758830737456 H 0.0 **** 0.06
35823 H 74.54368968477735 214.8948813340583 159.98835004870153 H 0.0 **** 0.06
35824 H 74.48155152466711 213.231565317244 159.35638928896344 H 0.0 **** 0.06
35825 H 74.15942120685963 213.54122049897595 161.0793380471709 H 0.0 **** 0.06
35826 C 138.95382633259624 95.99366779977682 129.65545910932644 C 0.0 **** -0.24
35827 H 139.45966846338172 96.77541221379438 130.2226570967194 H 0.0 **** 0.06
35828 H 139.62347822143283 95.14160101482493 129.53567309075652 H 0.0 **** 0.06
35829 H 138.67508942029787 96.37830753161667 128.67535548440014 H 0.0 **** 0.06
35830 H 138.0581144986959 95.67961166329651 130.19095064360738 H 0.0 **** 0.06
35831 C 186.81122128720742 1.418278494014487 154.008917008943 C 0.0 **** -0.24
35832 H 187.03592838047817 0.5751370993825304 153.35738772354244 H 0.0 **** 0.06
35833 H 186.9538064390631 2.3500966360322693 153.4596096273239 H 0.0 **** 0.06
35834 H 187.47699864670471 1.3985898131628005 154.87129105023814 H 0.0 **** 0.06
35835 H 185.7765350032583 1.350834648400479 154.3474222310677 H 0.0 **** 0.06
35836 C 5.948914699334679 15.11335349726852 5.369215030884206 C 0.0 **** -0.24
35837 H 6.563798709792749 15.933541107201904 4.997618357144958 H 0.0 **** 0.06
35838 H 5.423229712702508 15.432599835690752 6.269237369659692 H 0.0 **** 0.06
35839 H 6.584905266690242 14.259785032400998 5.601307664996298 H 0.0 **** 0.06
35840 H 5.224210270019533 14.82915911225274 4.606252923151153 H 0.0 **** 0.06
35841 C 199.44473024504816 28.982213064746873 216.32573787906537 C 0.0 **** -0.24
35842 H 199.38487691785042 28.706284042539494 217.3783037355851 H 0.0 **** 0.06
35843 H 198.45835018887828 29.283585206072928 215.97203409478647 H 0.0 **** 0.06
35844 H 199.79407178878242 28.127999915100645 215.74556073264586 H 0.0 **** 0.06
35845 H 200.14287430477964 29.810367676988847 216.20682221733955 H 0.0 **** 0.06
35846 C 6.301404113839254 82.04738780224733 79.25566431466387 C 0.0 **** -0.24
35847 H 6.825360584607338 82.96598832628518 79.52141014337946 H 0.0 **** 0.06
35848 H 6.5209919180162785 81.27747394182279 79.99467917510088 H 0.0 **** 0.06
35849 H 6.631177177366169 81.71265496948718 78.27187581963545 H 0.0 **** 0.06
35850 H 5.228069445211489 82.23581877130403 79.23413307604397 H 0.0 **** 0.06
35851 C 115.96460281991766 104.64843921613084 183.1705209770118 C 0.0 **** -0.24
35852 H 116.92131006563388 104.56465341307472 183.68553293069033 H 0.0 **** 0.06
35853 H 116.1322647460067 104.97733468408603 182.14429175854022 H 0.0 **** 0.06
35854 H 115.33532526956652 105.37328240567416 183.6875560456556 H 0.0 **** 0.06
35855 H 115.46999308643281 103.67638226655583 183.1635453003912 H 0.0 **** 0.06
35856 C 2.371244228790168 61.321237325448095 64.86081808970948 C 0.0 **** -0.24
35857 H 1.9567375233625768 60.31654877279584 64.77544686049933 H 0.0 **** 0.06
35858 H 1.5644135345403782 62.0530092116997 64.80505700176232 H 0.0 **** 0.06
35859 H 3.0753876998793075 61.49460755579611 64.04764538022663 H 0.0 **** 0.06
35860 H 2.8866472762696773 61.42125385432348 65.81637684771522 H 0.0 **** 0.06
35861 C 200.36898070224146 165.88780013837024 75.22571505127121 C 0.0 **** -0.24
35862 H 200.66827572530516 165.91334179857975 74.17783421238607 H 0.0 **** 0.06
35863 H 201.24879303799315 166.00963991331582 75.85770117727947 H 0.0 **** 0.06
35864 H 199.89399621119924 164.93118529372188 75.4447787845649 H 0.0 **** 0.06
35865 H 199.6647527904218 166.69615883267264 75.42207289659001 H 0.0 **** 0.06
35866 C 86.54220682210062 33.61311304114653 26.512921745302876 C 0.0 **** -0.24
35867 H 86.16512181847774 32.83194095124453 25.852100120576154 H 0.0 **** 0.06
35868 H 87.52453485578975 33.32751315896924 26.888956950309293 H 0.0 **** 0.06
35869 H 85.85506107156264 33.74195491996909 27.349806230827525 H 0.0 **** 0.06
35870 H 86.62159896558386 34.54920539803915 25.960258084475498 H 0.0 **** 0.06
35871 C 198.7087942932605 63.09223014655437 58.0759549782742 C 0.0 **** -0.24
35872 H 197.96681559280296 62.82843903395107 57.321913862882184 H 0.0 **** 0.06
35873 H 199.44581297581215 62.291775719232305 58.15583830158931 H 0.0 **** 0.06
35874 H 198.21523812479467 63.22944044205114 59.03902185595251 H 0.0 **** 0.06
35875 H 199.20641590888727 64.01759585285463 57.788234366637354 H 0.0 **** 0.06
35876 C 193.32130598583768 118.87155746905357 215.6782899337246 C 0.0 **** -0.24
35877 H 193.60663942643396 119.46925924865276 216.5438617350114 H 0.0 **** 0.06
35878 H 192.7536770743249 118.00123120962398 216.0088209784065 H 0.0 **** 0.06
35879 H 194.21738486304645 118.54381613796086 215.1525168073154 H 0.0 **** 0.06
35880 H 192.70671260443532 119.47412102045912 215.00867713730244 H 0.0 **** 0.06
35881 C 152.08986373904878 13.27966473148976 34.19808668266778 C 0.0 **** -0.24
35882 H 152.3084907334648 12.475065844395644 34.89951949435577 H 0.0 **** 0.06
35883 H 151.0715248356068 13.168968543349223 33.82472040412894 H 0.0 **** 0.06
35884 H 152.78991191143655 13.23436221387152 33.3634458103237 H 0.0 **** 0.06
35885 H 152.18905973245893 14.239137444768275 34.70394276277719 H 0.0 **** 0.06
35886 C 150.17701822863756 48.33963381824327 89.84358343383339 C 0.0 **** -0.24
35887 H 149.74754782657777 47.88130649064672 88.95256358183134 H 0.0 **** 0.06
35888 H 150.73878093948485 49.22985897024853 89.55906983529367 H 0.0 **** 0.06
35889 H 150.84456565031036 47.62840204254945 90.33169916320277 H 0.0 **** 0.06
35890 H 149.378044020958 48.618179808374435 90.52972442544082 H 0.0 **** 0.06
35891 C 42.405025151809255 54.59361068860261 50.10124724844701 C 0.0 **** -0.24
35892 H 42.383949355495616 54.38304917868203 51.16996413249166 H 0.0 **** 0.06
35893 H 43.22788329491917 54.047821936216536 49.639777587569085 H 0.0 **** 0.06
35894 H 42.545974973411546 55.66326302127132 49.94467400982958 H 0.0 **** 0.06
35895 H 41.46350672930694 54.28103308198514 49.65052846345536 H 0.0 **** 0.06
35896 C 46.10786717187921 141.91683079478508 129.33499240064327 C 0.0 **** -0.24
35897 H 46.47298208439156 141.5060552320905 130.27699701672202 H 0.0 **** 0.06
35898 H 45.49035744469768 142.79275743953662 129.53675316578995 H 0.0 **** 0.06
35899 H 45.51419345714618 141.16416079814502 128.81592059613956 H 0.0 **** 0.06
35900 H 46.95503459462492 142.20523004406436 128.7129478986247 H 0.0 **** 0.06
35901 C 143.5690764535874 148.679718985058 83.88786202061964 C 0.0 **** -0.24
35902 H 143.6620709288752 149.42921915509635 83.10204355808365 H 0.0 **** 0.06
35903 H 143.2183410877197 147.7425017891149 83.45582178345198 H 0.0 **** 0.06
35904 H 142.85628025006037 149.02532947609888 84.63679800115078 H 0.0 **** 0.06
35905 H 144.54164956641836 148.5233488560508 84.3551928141233 H 0.0 **** 0.06
35906 C 127.32160407394694 210.90097098999254 11.183496409638394 C 0.0 **** -0.24
35907 H 128.1504167539792 210.45533622881956 11.733702134949311 H 0.0 **** 0.06
35908 H 126.88938317168386 210.157774838502 10.51278803484604 H 0.0 **** 0.06
35909 H 127.68501273951718 211.74785166298432 10.60099798714495 H 0.0 **** 0.06
35910 H 126.56157088908357 211.242453937654 11.885613975462434 H 0.0 **** 0.06
35911 C 138.7848755360037 88.33581599804619 190.18733772135784 C 0.0 **** -0.24
35912 H 138.1216843053371 88.07773942808699 189.36103569976615 H 0.0 **** 0.06
35913 H 138.8925374522529 87.47659068785431 190.8484594159741 H 0.0 **** 0.06
35914 H 138.36233758431638 89.17290730515991 190.74360831169838 H 0.0 **** 0.06
35915 H 139.76112905902335 88.61737692133194 189.79403678847513 H 0.0 **** 0.06
35916 C 128.12264095662925 206.32092419646085 50.70231670796116 C 0.0 **** -0.24
35917 H 128.5262182445461 206.60770928186997 49.732134872007066 H 0.0 **** 0.06
35918 H 127.69933594734995 205.31834906836824 50.63819865834023 H 0.0 **** 0.06
35919 H 127.34531405604405 207.02615716315154 50.99544889496816 H 0.0 **** 0.06
35920 H 128.9203935295974 206.3318396585915 51.44557832832662 H 0.0 **** 0.06
35921 C 146.77083141475936 180.8537804217001 190.06343595145185 C 0.0 **** -0.24
35922 H 147.81721396456084 181.06257389471273 189.8405997271647 H 0.0 **** 0.06
35923 H 146.68531751446227 179.86499431778356 190.51334654126106 H 0.0 **** 0.06
35924 H 146.1903037095044 180.88517440178734 189.14086825447416 H 0.0 **** 0.06
35925 H 146.39006824349605 181.6031964215748 190.756891207931 H 0.0 **** 0.06
35926 C 162.85092341603044 84.25766561942173 158.70427569224216 C 0.0 **** -0.24
35927 H 162.2131500817958 83.83433693846733 157.92906661174231 H 0.0 **** 0.06
35928 H 163.7642553543499 83.66738618016028 158.78522696513892 H 0.0 **** 0.06
35929 H 162.32252059976827 84.24227003570574 159.65788336235119 H 0.0 **** 0.06
35930 H 163.10372197234153 85.28504936293682 158.4455371354183 H 0.0 **** 0.06
35931 C 15.479272497194017 90.56651022580543 85.27526836364393 C 0.0 **** -0.24
35932 H 15.545930483267512 89.93911530931244 86.16408863104755 H 0.0 **** 0.06
35933 H 14.956066114099372 91.4905131893626 85.52045958072989 H 0.0 **** 0.06
35934 H 14.932364324648233 90.03458409542422 84.4958389543612 H 0.0 **** 0.06
35935 H 16.4826763502964 90.7996148045289 84.91866199326864 H 0.0 **** 0.06
35936 C 89.42779927054345 53.92939229437631 39.3993063693361 C 0.0 **** -0.24
35937 H 89.98239583263403 53.067501756103766 39.77059802450012 H 0.0 **** 0.06
35938 H 89.68150509413253 54.101950945347966 38.35357743851448 H 0.0 **** 0.06
35939 H 89.68854716382266 54.80904839240233 39.98742269677817 H 0.0 **** 0.06
35940 H 88.35817139198248 53.73756936733936 39.48718305302425 H 0.0 **** 0.06
35941 C 167.91206647802795 161.73952475845218 166.20087045852065 C 0.0 **** -0.24
35942 H 167.03701120174756 161.98101730312672 166.802526270308 H 0.0 **** 0.06
35943 H 168.81409204828415 161.89625469365154 166.7926463789014 H 0.0 **** 0.06
35944 H 167.9374218387514 162.3835248419642 165.32205641229584 H 0.0 **** 0.06
35945 H 167.859835651556 160.69665391034926 165.887008253538 H 0.0 **** 0.06
35946 C 28.894266438905476 22.636283328198374 124.76878157037015 C 0.0 **** -0.24
35947 H 28.07000417275158 23.311015215437465 125.00010328342694 H 0.0 **** 0.06
35948 H 28.4997436286981 21.72015373466752 124.32933253353463 H 0.0 **** 0.06
35949 H 29.43434145507564 22.3976253412834 125.68496849329796 H 0.0 **** 0.06
35950 H 29.56933964239967 23.11769802924053 124.06270355974982 H 0.0 **** 0.06
35951 C 38.55627660357048 60.81126469063206 82.11895107484713 C 0.0 **** -0.24
35952 H 37.76676334605939 60.08957701261875 81.91027706685344 H 0.0 **** 0.06
35953 H 39.49793753812703 60.28331123901472 82.27638998447821 H 0.0 **** 0.06
35954 H 38.30314541243236 61.37808953047592 83.01479164892964 H 0.0 **** 0.06
35955 H 38.65913457113338 61.49197561612132 81.2741132180746 H 0.0 **** 0.06
35956 C 109.92122112190815 213.54646330801103 129.24489607462073 C 0.0 **** -0.24
35957 H 110.55957902770056 214.09524269569184 128.55339662929788 H 0.0 **** 0.06
35958 H 110.3737923243714 213.54919278372287 130.2371022092721 H 0.0 **** 0.06
35959 H 109.80993588217545 212.51820753840528 128.89930698089728 H 0.0 **** 0.06
35960 H 108.94178025284226 214.02188572558995 129.29023075655863 H 0.0 **** 0.06
35961 C 200.351904322219 129.34179664137582 1.5780781137591475 C 0.0 **** -0.24
35962 H 199.85269378014374 129.06046702903882 2.505485050494002 H 0.0 **** 0.06
35963 H 199.70130782088629 129.99935524210133 1.000980179372874 H 0.0 **** 0.06
35964 H 200.57232225891815 128.4464441149247 0.9988330157181906 H 0.0 **** 0.06
35965 H 201.28116471719537 129.86330265075674 1.8098964830317925 H 0.0 **** 0.06
35966 C 139.97638868052275 95.03378867071702 16.630363577504 C 0.0 **** -0.24
35967 H 139.76733020818222 95.42295941795003 17.62715584891589 H 0.0 **** 0.06
35968 H 139.03790753386778 94.78508424440561 16.134875552946653 H 0.0 **** 0.06
35969 H 140.59301410479264 94.13948086392863 16.712221661962644 H 0.0 **** 0.06
35970 H 140.50518852843243 95.78924195711521 16.04891349794741 H 0.0 **** 0.06
35971 C 131.39359925830053 200.4962068344104 188.72213422807133 C 0.0 **** -0.24
35972 H 131.67291634591413 201.17372444694797 189.52873014808193 H 0.0 **** 0.06
35973 H 130.62544819269067 200.96225046171202 188.10487624538746 H 0.0 **** 0.06
35974 H 131.00766744474015 199.5681523370512 189.14397853964533 H 0.0 **** 0.06
35975 H 132.26951903443592 200.27988258168773 188.11094645716915 H 0.0 **** 0.06
35976 C 68.43576158975881 54.827516310167425 165.8554447674574 C 0.0 **** -0.24
35977 H 67.38803301441436 54.941663744129684 166.13232257610917 H 0.0 **** 0.06
35978 H 68.8123746384624 55.77105580687987 165.4592516544406 H 0.0 **** 0.06
35979 H 68.52798656019188 54.05106859442154 165.09520884546055 H 0.0 **** 0.06
35980 H 69.0146221074457 54.54529444960964 166.73517908451907 H 0.0 **** 0.06
35981 C 178.14937841900405 173.75783666698302 86.99072082672662 C 0.0 **** -0.24
35982 H 178.456582767095 174.4418556690345 86.2004812384799 H 0.0 **** 0.06
35983 H 178.62110380495835 174.051008528014 87.9289513782441 H 0.0 **** 0.06
35984 H 178.45395784080816 172.74399739193825 86.73195562755377 H 0.0 **** 0.06
35985 H 177.06586926315475 173.7944850789453 87.10149506262881 H 0.0 **** 0.06
35986 C 2.6671940480065786 180.9449596285262 145.36866571942778 C 0.0 **** -0.24
35987 H 2.909738059609076 181.52822221098612 144.48138996289595 H 0.0 **** 0.06
35988 H 1.6861181825992873 181.24133460771782 145.74092660730827 H 0.0 **** 0.06
35989 H 3.417448414183781 181.12456314098634 146.13840209835905 H 0.0 **** 0.06
35990 H 2.654121075426467 179.88533171526578 145.11410744700504 H 0.0 **** 0.06
35991 C 49.895935316393434 160.0965426619219 36.17539325946596 C 0.0 **** -0.24
35992 H 48.85443984975677 160.38254406782403 36.03510964306996 H 0.0 **** 0.06
35993 H 50.33790689077904 159.84714868551907 35.21073533636199 H 0.0 **** 0.06
35994 H 49.949811913010706 159.2301436790736 36.83433805660843 H 0.0 **** 0.06
35995 H 50.44281565196815 160.9273266937431 36.622093315290996 H 0.0 **** 0.06
35996 C 66.7739010949431 18.5259100949568 89.87941353931193 C 0.0 **** -0.24
35997 H 66.62582469027922 18.816391993045045 90.91955909822819 H 0.0 **** 0.06
35998 H 67.83992931587055 18.40289573072465 89.68524491545385 H 0.0 **** 0.06
35999 H 66.37120256689657 19.2991583247603 89.22621894026865 H 0.0 **** 0.06
36000 H 66.2579571848849 17.584865440882254 89.68953206956554 H 0.0 **** 0.06
36001 C 102.27679616316904 131.9323912603919 145.09738817137207 C 0.0 **** -0.24
36002 H 101.39484413604883 131.3260715952481 144.88584560366337 H 0.0 **** 0.06
36003 H 102.22398669762977 132.86051304658304 144.5285127525073 H 0.0 **** 0.06
36004 H 103.17214441492528 131.38125375548964 144.81307661029524 H 0.0 **** 0.06
36005 H 102.31216072596605 132.1597139752899 146.16286452903068 H 0.0 **** 0.06
36006 C 197.990806012088 142.39982166975892 24.123191502478136 C 0.0 **** -0.24
36007 H 197.1730329369479 141.6821636509071 24.183484874139666 H 0.0 **** 0.06
36008 H 198.68334943060006 142.2309722883785 24.947669296566517 H 0.0 **** 0.06
36009 H 197.59032863553603 143.41207853059763 24.186563984524227 H 0.0 **** 0.06
36010 H 198.514694324914 142.27489181291895 23.1760580975658 H 0.0 **** 0.06
36011 C 152.47816005878366 137.9998026497002 43.517971621754015 C 0.0 **** -0.24
36012 H 151.56003145991627 137.4896726137469 43.22441859342868 H 0.0 **** 0.06
36013 H 152.84115872203205 137.58069684704338 44.455933997265106 H 0.0 **** 0.06
36014 H 152.27709960920828 139.062641762056 43.64721879086298 H 0.0 **** 0.06
36015 H 153.23261612831885 137.86320848364045 42.74288438898017 H 0.0 **** 0.06
36016 C 111.08670755102814 87.29615229412006 172.90797764979877 C 0.0 **** -0.24
36017 H 110.38611212937009 86.6072246842701 172.43707009511542 H 0.0 **** 0.06
36018 H 111.78102522492223 86.73486784974627 173.53391845428797 H 0.0 **** 0.06
36019 H 110.5371684150061 88.0087731104807 173.52294792970298 H 0.0 **** 0.06
36020 H 111.64211399317439 87.83179648517971 172.13817564973922 H 0.0 **** 0.06
36021 C 20.054943998794528 98.31881140582192 190.74869749985083 C 0.0 **** -0.24
36022 H 21.113883559915166 98.41654942581835 190.51104563298097 H 0.0 **** 0.06
36023 H 19.870040530010556 98.703829758474 191.7518962460863 H 0.0 **** 0.06
36024 H 19.768032737286887 97.26824670806445 190.7027096667946 H 0.0 **** 0.06
36025 H 19.467440942612996 98.88672700430311 190.02717745741663 H 0.0 **** 0.06
36026 C 184.18115695997818 148.85056818493035 68.4545765523874 C 0.0 **** -0.24
36027 H 183.1993357065898 148.50012306630725 68.13720079420288 H 0.0 **** 0.06
36028 H 184.78566177818175 148.0001991086499 68.77039374442059 H 0.0 **** 0.06
36029 H 184.0676921196091 149.54539762336208 69.28645269159992 H 0.0 **** 0.06
36030 H 184.6722408967816 149.35632886248715 67.62289581436717 H 0.0 **** 0.06
36031 C 90.64281606203879 59.79962915543581 31.969817325366478 C 0.0 **** -0.24
36032 H 90.1948940019711 59.14334901280159 31.223193356611034 H 0.0 **** 0.06
36033 H 90.32989879852086 60.826988254479204 31.783470324910155 H 0.0 **** 0.06
36034 H 91.72912940486033 59.733398743407065 31.906146316111432 H 0.0 **** 0.06
36035 H 90.31734863810472 59.4940262289345 32.96355568253273 H 0.0 **** 0.06
36036 C 155.98485528427204 134.3539477600417 144.7889411964461 C 0.0 **** -0.24
36037 H 156.4591734178664 135.26514750224243 145.15293085105583 H 0.0 **** 0.06
36038 H 156.7349680377975 133.7133505379909 144.32433791825042 H 0.0 **** 0.06
36039 H 155.22012075730316 134.61075362346196 144.05529482132073 H 0.0 **** 0.06
36040 H 155.52380471785727 133.82636674645033 145.62497218612702 H 0.0 **** 0.06
36041 C 174.04471241263542 128.42438400214456 138.10482786679847 C 0.0 **** -0.24
36042 H 175.0720857208281 128.0732915932324 138.00512654864428 H 0.0 **** 0.06
36043 H 174.04244108644423 129.50649755983784 138.23213148174625 H 0.0 **** 0.06
36044 H 173.58354723140542 127.95485813891698 138.9736415831464 H 0.0 **** 0.06
36045 H 173.48335691049806 128.16174002346077 137.20854428116354 H 0.0 **** 0.06
36046 C 28.10143015258626 121.15002192627368 23.566833597612288 C 0.0 **** -0.24
36047 H 28.367175370027994 122.0008922098837 24.193750951386505 H 0.0 **** 0.06
36048 H 27.852501210587164 120.2967394945472 24.19784279909001 H 0.0 **** 0.06
36049 H 28.945104643844033 120.89453862535272 22.92528330214867 H 0.0 **** 0.06
36050 H 27.24136338526948 121.40941472586293 22.94969693221242 H 0.0 **** 0.06
36051 C 120.15187204116349 83.05062881245202 100.00009437270478 C 0.0 **** -0.24
36052 H 119.51734866957047 82.53477121287138 100.72025904278917 H 0.0 **** 0.06
36053 H 120.42463520720914 84.0308088603749 100.39266600345422 H 0.0 **** 0.06
36054 H 119.61130999020368 83.17305658460576 99.06162474439765 H 0.0 **** 0.06
36055 H 121.05461874293978 82.46522546548734 99.82575146500125 H 0.0 **** 0.06
36056 C 183.81213704717553 172.17344135379636 203.2770647036827 C 0.0 **** -0.24
36057 H 184.2585145177179 172.2004751429575 204.2709708663216 H 0.0 **** 0.06
36058 H 184.42716739868024 172.75208026889288 202.58687861860818 H 0.0 **** 0.06
36059 H 182.81018420456115 172.6016392169783 203.31720496879254 H 0.0 **** 0.06
36060 H 183.7528040664736 171.1415212235271 202.9336297772163 H 0.0 **** 0.06
36061 C 2.8371377781362526 195.60037940906585 16.493666186957967 C 0.0 **** -0.24
36062 H 3.416246870598627 195.21222789009136 17.33019242986282 H 0.0 **** 0.06
36063 H 2.1231121557758286 194.84549114399235 16.1644439913494 H 0.0 **** 0.06
36064 H 3.508499316661016 195.84894734640366 15.671578110275718 H 0.0 **** 0.06
36065 H 2.3012190266522623 196.49665319019383 16.807235238764164 H 0.0 **** 0.06
36066 C 107.30147295093015 127.51386257720391 59.39700023641336 C 0.0 **** -0.24
36067 H 107.61233175865739 127.48700815409491 58.35272451885942 H 0.0 **** 0.06
36068 H 107.45363153254546 128.51738377794186 59.79530554030811 H 0.0 **** 0.06
36069 H 107.89324890618637 126.80105944287119 59.97101856515491 H 0.0 **** 0.06
36070 H 106.24545991573898 127.25006805022029 59.468239852600675 H 0.0 **** 0.06
36071 C 178.78475793406972 41.298790523426646 72.60550015999695 C 0.0 **** -0.24
36072 H 179.70913993670786 40.77001791777809 72.37401889946057 H 0.0 **** 0.06
36073 H 178.74399671259815 42.226409377834955 72.03556779463531 H 0.0 **** 0.06
36074 H 178.75357359020714 41.52498525054483 73.67220801643174 H 0.0 **** 0.06
36075 H 177.93272073313133 40.672207706177616 72.34177545813304 H 0.0 **** 0.06
36076 C 63.51548473354961 136.47946011040455 203.43981967178826 C 0.0 **** -0.24
36077 H 63.38373282990352 135.4170132221118 203.64321380211155 H 0.0 **** 0.06
36078 H 62.54699208441713 136.9302391204672 203.22210100599142 H 0.0 **** 0.06
36079 H 64.17698877654271 136.6053803473332 202.58295759179458 H 0.0 **** 0.06
36080 H 63.95425976286839 136.96364497673142 204.31260523300975 H 0.0 **** 0.06
36081 C 214.23898332122002 211.10012566319315 34.25174289215525 C 0.0 **** -0.24
36082 H 214.40152575715425 212.0678190015237 33.77772423569934 H 0.0 **** 0.06
36083 H 215.20126505604398 210.65504358849057 34.5072462535432 H 0.0 **** 0.06
36084 H 213.7065897686927 210.4430225134635 33.56347426239091 H 0.0 **** 0.06
36085 H 213.64819004829917 211.2338904661386 35.15763770607521 H 0.0 **** 0.06
36086 C 147.9026653340456 139.75366023643812 14.45377875703727 C 0.0 **** -0.24
36087 H 147.85688201435397 140.55154897662072 13.712159856877221 H 0.0 **** 0.06
36088 H 148.62453991546198 140.01901010843562 15.226657585543833 H 0.0 **** 0.06
36089 H 148.2116879318168 138.82609135097982 13.970640936355068 H 0.0 **** 0.06
36090 H 146.92030737779896 139.61897500258317 14.903803011203763 H 0.0 **** 0.06
36091 C 97.78798378609525 181.1449771389295 137.05513430606266 C 0.0 **** -0.24
36092 H 97.87411241652467 181.6733162077319 136.10626719005938 H 0.0 **** 0.06
36093 H 97.67392881679422 181.86697961011362 137.86400143979546 H 0.0 **** 0.06
36094 H 98.68622328811551 180.55048922244688 137.22270534975928 H 0.0 **** 0.06
36095 H 96.91787175332252 180.4882508766498 137.02800828967582 H 0.0 **** 0.06
36096 C 212.74497241167546 115.18781474933026 197.30291125391403 C 0.0 **** -0.24
36097 H 212.76840013195584 115.30521998134124 196.2193410918614 H 0.0 **** 0.06
36098 H 213.76453380680746 115.15718547763332 197.68713065132965 H 0.0 **** 0.06
36099 H 212.23234002548583 114.25989889288878 197.55620423551943 H 0.0 **** 0.06
36100 H 212.21323534178342 116.02945463991837 197.74700822923717 H 0.0 **** 0.06
36101 C 42.911857413956284 127.00785457822546 80.76566649816135 C 0.0 **** -0.24
36102 H 42.38900878111235 126.11145821124303 80.43239184446776 H 0.0 **** 0.06
36103 H 42.472242748475026 127.88262316424083 80.28677089500343 H 0.0 **** 0.06
36104 H 43.96543659894394 126.93562952879093 80.49419533194464 H 0.0 **** 0.06
36105 H 42.8207488931277 127.1000328147948 81.84752024594212 H 0.0 **** 0.06
36106 C 152.26756643351598 34.55493083021412 70.27700184294183 C 0.0 **** -0.24
36107 H 152.20042760781786 34.75150109969286 69.20700434627221 H 0.0 **** 0.06
36108 H 153.21589857481257 34.06394486357726 70.49596547266181 H 0.0 **** 0.06
36109 H 151.44470758931658 33.90799460347205 70.58061009810807 H 0.0 **** 0.06
36110 H 152.2113950144726 35.49605743400906 70.82390733925693 H 0.0 **** 0.06
36111 C 194.64628405934187 44.1401923834747 135.58989964517605 C 0.0 **** -0.24
36112 H 194.06813070548938 44.03051780808937 136.507446551309 H 0.0 **** 0.06
36113 H 194.1408992590314 43.617655816130195 134.77767130458358 H 0.0 **** 0.06
36114 H 195.63955683053524 43.71506177703111 135.7345105315153 H 0.0 **** 0.06
36115 H 194.7363093897029 45.1984462263471 135.34199764109422 H 0.0 **** 0.06
36116 C 105.77688867030683 32.94580720102704 97.7211615950172 C 0.0 **** -0.24
36117 H 106.32898086486294 33.6988121455625 98.28328782095535 H 0.0 **** 0.06
36118 H 105.60104093078037 33.30524111501637 96.70660997329408 H 0.0 **** 0.06
36119 H 104.82145975434743 32.75523206074158 98.21032603048069 H 0.0 **** 0.06
36120 H 106.35676582731203 32.0232353086231 97.68455922445905 H 0.0 **** 0.06
36121 C 181.66517996701492 26.387617813802862 112.29716701241512 C 0.0 **** -0.24
36122 H 181.30677961619165 27.41645231919489 112.32618218882675 H 0.0 **** 0.06
36123 H 181.73800273040857 26.05735862285357 111.26081434384713 H 0.0 **** 0.06
36124 H 180.96805577366712 25.74451616630749 112.83560576474866 H 0.0 **** 0.06
36125 H 182.64654633587327 26.332582541144674 112.76707794604334 H 0.0 **** 0.06
36126 C 172.62408350803315 113.29211844513516 93.56460692974515 C 0.0 **** -0.24
36127 H 172.44975087528894 114.15385329922573 94.20807432820045 H 0.0 **** 0.06
36128 H 172.58146746618655 112.37963938710881 94.15881562069264 H 0.0 **** 0.06
36129 H 173.60683556967868 113.37868405694952 93.10048310243737 H 0.0 **** 0.06
36130 H 171.85816513771516 113.2574968170372 92.7891712154814 H 0.0 **** 0.06
36131 C 15.746038553708615 57.13395336319837 205.8984669157551 C 0.0 **** -0.24
36132 H 16.569265574775898 56.43744283352902 205.74554059841998 H 0.0 **** 0.06
36133 H 15.15949223124531 56.82048711637907 206.7627032717414 H 0.0 **** 0.06
36134 H 15.11083686847553 57.14598069139481 205.01280089637305 H 0.0 **** 0.06
36135 H 16.14379413637161 58.13400226637299 206.0727420836767 H 0.0 **** 0.06
36136 C 93.08986463074767 66.28437087599667 191.45766146437515 C 0.0 **** -0.24
36137 H 92.39908219064488 67.10712796436229 191.64325925083668 H 0.0 **** 0.06
36138 H 94.07939587045418 66.68469751528386 191.2345904831046 H 0.0 **** 0.06
36139 H 92.73504655874562 65.69775007701861 190.6100847328667 H 0.0 **** 0.06
36140 H 93.14481226041862 65.64963163830924 192.34183338629836 H 0.0 **** 0.06
36141 C 108.45521653321357 70.42248727077737 90.24423819611702 C 0.0 **** -0.24
36142 H 109.53928126539437 70.51172308123427 90.17577098566609 H 0.0 **** 0.06
36143 H 108.14521610028517 69.45479359452094 89.84866540566587 H 0.0 **** 0.06
36144 H 107.98865596343812 71.21815740226288 89.66421026748456 H 0.0 **** 0.06
36145 H 108.14862417255533 70.50452438930301 91.28640716078662 H 0.0 **** 0.06
36146 C 13.977674204831516 81.37382703680646 178.0413804543031 C 0.0 **** -0.24
36147 H 13.231505703996731 80.96538944055578 177.35970865809276 H 0.0 **** 0.06
36148 H 13.896453192250988 82.46109599259836 178.05782785889073 H 0.0 **** 0.06
36149 H 14.973678861555925 81.08840487908179 177.7029339279265 H 0.0 **** 0.06
36150 H 13.807983948666845 80.98126279651865 179.04359183807574 H 0.0 **** 0.06
36151 C 209.9882248885631 120.55853039140827 40.64461801149717 C 0.0 **** -0.24
36152 H 210.84104471207982 120.50081862749708 39.96832973286489 H 0.0 **** 0.06
36153 H 209.09564165220638 120.83061546463857 40.07973391274243 H 0.0 **** 0.06
36154 H 210.1795839723694 121.31384170750572 41.40747492454186 H 0.0 **** 0.06
36155 H 209.83560961294876 119.59057605674577 41.1215311199783 H 0.0 **** 0.06
36156 C 142.78443510476927 101.3748259268276 51.51743953317266 C 0.0 **** -0.24
36157 H 143.75331644457185 101.84342214228819 51.68839175847053 H 0.0 **** 0.06
36158 H 142.12548415411914 102.07919520768583 51.009729283311 H 0.0 **** 0.06
36159 H 142.34511250103452 101.09089844261239 52.47449125332156 H 0.0 **** 0.06
36160 H 142.91405328163023 100.48677167114944 50.899141144353095 H 0.0 **** 0.06
36161 C 188.58062621281638 176.0972445958659 50.59167779125849 C 0.0 **** -0.24
36162 H 188.96728790211645 175.19954328198014 51.07432386185204 H 0.0 **** 0.06
36163 H 188.34563540164524 175.87743047146694 49.549924357052944 H 0.0 **** 0.06
36164 H 189.33185589470634 176.8860214939188 50.636355679893114 H 0.0 **** 0.06
36165 H 187.67829378942375 176.42680197816844 51.10602519683971 H 0.0 **** 0.06
36166 C 210.55963778303072 153.06550974275103 141.13074835117146 C 0.0 **** -0.24
36167 H 210.15499433609196 152.06257170328774 140.99324157410422 H 0.0 **** 0.06
36168 H 210.65163434619018 153.55568538316436 140.16159686215167 H 0.0 **** 0.06
36169 H 211.54100493080244 152.99842374483228 141.60004156654895 H 0.0 **** 0.06
36170 H 209.890633491904 153.64209396614092 141.7692379919485 H 0.0 **** 0.06
36171 C 145.191997571998 196.099202293257 93.03453345664157 C 0.0 **** -0.24
36172 H 145.28489173963573 195.37943960763747 93.84689634449573 H 0.0 **** 0.06
36173 H 146.13247328844272 196.14791151967728 92.48393922563325 H 0.0 **** 0.06
36174 H 144.9598404082691 197.0821796209575 93.44409023831535 H 0.0 **** 0.06
36175 H 144.3927503001015 195.78712127874672 92.36175460173693 H 0.0 **** 0.06
36176 C 188.90810148650445 17.683050124475344 151.04227393732623 C 0.0 **** -0.24
36177 H 188.99517818345504 17.020308684016555 151.90349491681826 H 0.0 **** 0.06
36178 H 189.90247080331105 17.93572498627529 150.6754017558451 H 0.0 **** 0.06
36179 H 188.38555666242905 18.593277521915965 151.3366701511382 H 0.0 **** 0.06
36180 H 188.34641991831268 17.180423264781183 150.25396294721338 H 0.0 **** 0.06
36181 C 86.22067078870435 33.514233963344495 172.21707246715152 C 0.0 **** -0.24
36182 H 86.6869879374766 32.52949240726939 172.24923646643262 H 0.0 **** 0.06
36183 H 86.97156233402217 34.26276942290406 171.96494812686817 H 0.0 **** 0.06
36184 H 85.7910122925465 33.743979161395075 173.19195340956628 H 0.0 **** 0.06
36185 H 85.43355084227989 33.51892503205143 171.46297809455947 H 0.0 **** 0.06
36186 C 142.79443433182144 195.5393004324874 87.58831271124649 C 0.0 **** -0.24
36187 H 142.75159091267545 196.6132902978907 87.40521612698114 H 0.0 **** 0.06
36188 H 143.83478320171713 195.22980452933564 87.69461263464302 H 0.0 **** 0.06
36189 H 142.34153576085924 195.00946395990317 86.75090461697926 H 0.0 **** 0.06
36190 H 142.25060372225875 195.30570414365295 88.50364498941002 H 0.0 **** 0.06
36191 C 37.25637131749234 35.929993675712524 29.39227611433516 C 0.0 **** -0.24
36192 H 38.2125584811414 36.26548242065127 29.79516389618537 H 0.0 **** 0.06
36193 H 37.39699304907391 34.989857472234746 28.858225932534907 H 0.0 **** 0.06
36194 H 36.866001338741256 36.682897333043286 28.707917662500165 H 0.0 **** 0.06
36195 H 36.55077728317143 35.78087542788518 30.20967928658773 H 0.0 **** 0.06
36196 C 142.82674000062752 160.49698938652966 116.0822522457575 C 0.0 **** -0.24
36197 H 143.68509620627185 160.34919120932867 115.42778724281521 H 0.0 **** 0.06
36198 H 141.98014250232973 159.92411886536382 115.70423614364074 H 0.0 **** 0.06
36199 H 142.56789203276077 161.55504280286613 116.10928591451943 H 0.0 **** 0.06
36200 H 143.07519314842824 160.15762490578413 117.08816920578232 H 0.0 **** 0.06
36201 C 82.76289835713169 118.75107558822477 108.54176723030855 C 0.0 **** -0.24
36202 H 83.59055403891341 119.36252912019758 108.90121651345561 H 0.0 **** 0.06
36203 H 82.01729840205155 118.64979280102234 109.32963372945045 H 0.0 **** 0.06
36204 H 83.13519640774939 117.76533632062076 108.2638600792659 H 0.0 **** 0.06
36205 H 82.31143046711492 119.22768024472929 107.67158513220346 H 0.0 **** 0.06
36206 C 85.11173957392465 17.75270932870012 90.36622108561113 C 0.0 **** -0.24
36207 H 84.84146668929925 16.714884639973263 90.16837609639833 H 0.0 **** 0.06
36208 H 84.26363480305729 18.268898982314568 90.81595731273978 H 0.0 **** 0.06
36209 H 85.38105836756087 18.24151058694588 89.42923555957384 H 0.0 **** 0.06
36210 H 85.96093664457315 17.782606761312707 91.04900041843348 H 0.0 **** 0.06
36211 C 70.20838951600513 30.30339017802521 183.78762977653838 C 0.0 **** -0.24
36212 H 69.43634612454383 31.07205844542642 183.82434810377077 H 0.0 **** 0.06
36213 H 70.34378487293066 29.876369463081403 184.7817286432004 H 0.0 **** 0.06
36214 H 71.14628300798933 30.746686189646994 183.4515902000431 H 0.0 **** 0.06
36215 H 69.90778539891937 29.51921144314565 183.0929132801935 H 0.0 **** 0.06
36216 C 88.41527382200552 62.68962284479527 139.3677095188558 C 0.0 **** -0.24
36217 H 87.56408201651819 63.005338587724495 139.96964405842988 H 0.0 **** 0.06
36218 H 88.95489284625528 63.568610885653754 139.01331920949764 H 0.0 **** 0.06
36219 H 88.06169796186869 62.11183802023322 138.5135538246763 H 0.0 **** 0.06
36220 H 89.08101740548581 62.07330762106737 139.97281048681282 H 0.0 **** 0.06
36221 C 54.07048935473571 24.27879690627404 191.2927512867883 C 0.0 **** -0.24
36222 H 53.43255954887864 23.542617448888507 190.80389394309205 H 0.0 **** 0.06
36223 H 54.68012286004104 23.784258847232536 192.0497739115465 H 0.0 **** 0.06
36224 H 53.45044247226289 25.039377671575323 191.76611465799863 H 0.0 **** 0.06
36225 H 54.71863711972824 24.74605018436614 190.55202733793797 H 0.0 **** 0.06
36226 C 174.9471184113876 106.66345142537811 67.64240376742957 C 0.0 **** -0.24
36227 H 175.67220757295604 106.06720994391345 67.08825311619596 H 0.0 **** 0.06
36228 H 175.38794377423523 106.98410995248112 68.58717478354967 H 0.0 **** 0.06
36229 H 174.05951094530204 106.06308870568016 67.84063020029292 H 0.0 **** 0.06
36230 H 174.67148557408586 107.53821982347661 67.05423720180332 H 0.0 **** 0.06
36231 C 199.69076494251235 140.13204802798634 202.11301874293582 C 0.0 **** -0.24
36232 H 200.24882779124135 139.80013536770053 201.23750176426557 H 0.0 **** 0.06
36233 H 198.63512804870865 140.22164923243923 201.85718382552278 H 0.0 **** 0.06
36234 H 200.06963689225216 141.1000683418461 202.44002767984546 H 0.0 **** 0.06
36235 H 199.81069325572554 139.40486790499443 202.91620764237894 H 0.0 **** 0.06
36236 C 99.07142179353478 169.72183692913507 131.75225033060713 C 0.0 **** -0.24
36237 H 98.59636040012192 170.53138452231468 131.19827334481084 H 0.0 **** 0.06
36238 H 98.79382157702035 168.7663463194312 131.30691904345622 H 0.0 **** 0.06
36239 H 98.74026151281412 169.74843524602824 132.7904446942503 H 0.0 **** 0.06
36240 H 100.15379778122202 169.84138116444996 131.71243171592454 H 0.0 **** 0.06
36241 C 171.7464017285734 63.18865847502005 58.95477419558361 C 0.0 **** -0.24
36242 H 172.32596490234056 64.08648953014917 59.16976969010085 H 0.0 **** 0.06
36243 H 171.33795420854165 63.2539304037812 57.94549853309462 H 0.0 **** 0.06
36244 H 170.9308555391375 63.10357771282514 59.67274272476618 H 0.0 **** 0.06
36245 H 172.3912092027231 62.313044605895485 59.03084529956567 H 0.0 **** 0.06
36246 C 50.18965311324459 155.6761057867011 141.33808913209754 C 0.0 **** -0.24
36247 H 50.28426845577535 156.230662709353 140.40448445496247 H 0.0 **** 0.06
36248 H 49.163015120111794 155.74361647940106 141.69885482355522 H 0.0 **** 0.06
36249 H 50.86486976230351 156.09879560402203 142.08156133656905 H 0.0 **** 0.06
36250 H 50.44681806081667 154.6305255244228 141.16701531582555 H 0.0 **** 0.06
36251 C 131.14519599564278 3.101344404011371 132.82733310124917 C 0.0 **** -0.24
36252 H 132.19408170475373 2.8142772578475785 132.90962149930272 H 0.0 **** 0.06
36253 H 131.03142417177105 3.8327742794621145 132.02729844941763 H 0.0 **** 0.06
36254 H 130.81437896081945 3.5383360364838268 133.76941618475308 H 0.0 **** 0.06
36255 H 130.54434981934162 2.221020547634623 132.60317270039042 H 0.0 **** 0.06
36256 C 86.18965705143255 54.686631049231124 93.64078918715039 C 0.0 **** -0.24
36257 H 86.50427927512821 54.29329234475037 94.60741613485423 H 0.0 **** 0.06
36258 H 86.74026540016014 54.182060559566224 92.84664989881237 H 0.0 **** 0.06
36259 H 86.39415746776574 55.75702094062265 93.60066170531495 H 0.0 **** 0.06
36260 H 85.12134781687813 54.51614348784108 93.50850727930138 H 0.0 **** 0.06
36261 C 185.7802178162415 173.87775755555106 14.425805430207717 C 0.0 **** -0.24
36262 H 186.70229095533443 174.07048803757067 14.972473695293374 H 0.0 **** 0.06
36263 H 184.92525176269748 174.07780946761616 15.071729898070942 H 0.0 **** 0.06
36264 H 185.75852944460325 172.83596977589136 14.10611030737519 H 0.0 **** 0.06
36265 H 185.7344056027281 174.52698952219453 13.550500763636862 H 0.0 **** 0.06
36266 C 28.430633844845914 122.46963718284034 175.16306118419595 C 0.0 **** -0.24
36267 H 29.47106044675253 122.46117364134402 174.83644977846816 H 0.0 **** 0.06
36268 H 27.825866695348026 121.88938336830547 174.46672266803327 H 0.0 **** 0.06
36269 H 28.067887875459874 123.49690327432386 175.1910051965084 H 0.0 **** 0.06
36270 H 28.359343457011946 122.03171784272406 176.15947048547415 H 0.0 **** 0.06
36271 C 112.79359264139067 156.19573591412762 109.26540092658074 C 0.0 **** -0.24
36272 H 112.40801339756139 157.199866317148 109.43820397983875 H 0.0 **** 0.06
36273 H 113.15937099325284 155.78039267822294 110.2046470800877 H 0.0 **** 0.06
36274 H 113.61080187117234 156.23970770542024 108.54518103001526 H 0.0 **** 0.06
36275 H 111.99738782445876 155.5636929859097 108.87376877659317 H 0.0 **** 0.06
36276 C 129.2217009232516 145.03981512422206 139.36834121333266 C 0.0 **** -0.24
36277 H 130.15341856865365 145.27079465886817 138.84957068377315 H 0.0 **** 0.06
36278 H 129.04042574113123 143.96597755130426 139.32703376755586 H 0.0 **** 0.06
36279 H 128.39873290891785 145.56724272258413 138.88568821402117 H 0.0 **** 0.06
36280 H 129.29700609947935 145.3563883994703 140.40884332087904 H 0.0 **** 0.06
36281 C 213.43934575427244 73.5211170592289 120.69109975524584 C 0.0 **** -0.24
36282 H 213.2635151380819 73.83417403363221 119.66147648539162 H 0.0 **** 0.06
36283 H 213.89414562192266 74.34188233947755 121.24602819889908 H 0.0 **** 0.06
36284 H 214.10727832793827 72.6601126490021 120.70045977155455 H 0.0 **** 0.06
36285 H 212.49011591851087 73.24976760938496 121.15410553010877 H 0.0 **** 0.06
36286 C 8.078360214721712 7.817047804419474 44.26725513721385 C 0.0 **** -0.24
36287 H 7.951457846046452 7.913857401475624 45.34583097565141 H 0.0 **** 0.06
36288 H 7.252662206051696 7.236428327250138 43.85561213411512 H 0.0 **** 0.06
36289 H 9.020265279335703 7.310782839289999 44.05683468835758 H 0.0 **** 0.06
36290 H 8.088568097163474 8.80726048193361 43.81267755867344 H 0.0 **** 0.06
36291 C 6.440706739431505 126.11291312542092 3.032269170966572 C 0.0 **** -0.24
36292 H 6.348909463983205 125.06284199751464 2.755168071856083 H 0.0 **** 0.06
36293 H 6.100210811867271 126.24928123655188 4.058151415190395 H 0.0 **** 0.06
36294 H 5.830488523163979 126.71937450428653 2.3617033723660796 H 0.0 **** 0.06
36295 H 7.483905685104361 126.42004965158922 2.9503773456676043 H 0.0 **** 0.06
36296 C 23.957669713811697 2.8482115856718053 15.38293702414424 C 0.0 **** -0.24
36297 H 24.13578872094564 2.8371032680776125 16.458509602573983 H 0.0 **** 0.06
36298 H 24.901061728376988 3.013034979991261 14.860808763545279 H 0.0 **** 0.06
36299 H 23.260598317369556 3.6493064258606296 15.137411751998428 H 0.0 **** 0.06
36300 H 23.53448149042441 1.891651060950494 15.076188220895133 H 0.0 **** 0.06
36301 C 43.01253858895511 7.645956707634809 34.81081076858888 C 0.0 **** -0.24
36302 H 43.063397325493355 6.770783858743016 35.45785558506219 H 0.0 **** 0.06
36303 H 42.661904610279635 8.503508683920302 35.38600167251582 H 0.0 **** 0.06
36304 H 42.32171914691423 7.452519384780658 33.989523574456484 H 0.0 **** 0.06
36305 H 44.00321302060556 7.858352943037886 34.40807244507073 H 0.0 **** 0.06
36306 C 148.24777877429096 133.50595074034288 64.7431752735132 C 0.0 **** -0.24
36307 H 147.7050958938907 133.9439205470814 65.58129691604677 H 0.0 **** 0.06
36308 H 147.67846059788798 132.66777924900475 64.34049610383113 H 0.0 **** 0.06
36309 H 149.22100813501896 133.1532652137268 65.08477104324163 H 0.0 **** 0.06
36310 H 148.38553499352622 134.2582411240328 63.96740693429126 H 0.0 **** 0.06
36311 C 187.39727857151823 102.87093781717061 24.495886344419915 C 0.0 **** -0.24
36312 H 187.7618708915042 101.87394114993987 24.74668357658996 H 0.0 **** 0.06
36313 H 186.33936903575426 102.81634984767135 24.23971511485749 H 0.0 **** 0.06
36314 H 187.95780374603606 103.25892334241559 23.64569113843335 H 0.0 **** 0.06
36315 H 187.5311948649042 103.53194623166462 25.351612014567138 H 0.0 **** 0.06
36316 C 30.766010276986833 77.09999234893826 110.0838434284425 C 0.0 **** -0.24
36317 H 30.067109407482008 76.70476915548016 110.82134620580213 H 0.0 **** 0.06
36318 H 31.039041578952776 76.31066614899265 109.38281974098778 H 0.0 **** 0.06
36319 H 31.660753911182326 77.46188445457182 110.590674835147 H 0.0 **** 0.06
36320 H 30.29708216111527 77.92083070371234 109.54183241102989 H 0.0 **** 0.06
36321 C 174.59065408355224 172.78270885416657 133.26130016115047 C 0.0 **** -0.24
36322 H 175.56100139670858 173.19675052827154 132.9866736400948 H 0.0 **** 0.06
36323 H 173.9690832423536 173.5692571497316 133.6909705354882 H 0.0 **** 0.06
36324 H 174.72900837844963 171.9879755590686 133.99386497289163 H 0.0 **** 0.06
36325 H 174.10422428776766 172.37897548620168 132.37367436853577 H 0.0 **** 0.06
36326 C 38.18859803921282 8.6223786023495 50.97313876279755 C 0.0 **** -0.24
36327 H 37.96297836767587 7.567429886425373 50.81895348908161 H 0.0 **** 0.06
36328 H 37.52398594431614 9.026979063409385 51.7370153108815 H 0.0 **** 0.06
36329 H 38.0422916642506 9.164820189216869 50.03907575289058 H 0.0 **** 0.06
36330 H 39.22331971358159 8.728984253747683 51.297421683395015 H 0.0 **** 0.06
36331 C 0.49895317183927546 155.61094502323402 137.49044943760083 C 0.0 **** -0.24
36332 H 0.10019759972453812 154.60978175564912 137.65506185383174 H 0.0 **** 0.06
36333 H -0.325975685555818 156.3127562339377 137.3649482296309 H 0.0 **** 0.06
36334 H 1.1184315027660432 155.6123449455194 136.5937143759607 H 0.0 **** 0.06
36335 H 1.1011502895579497 155.90790895057233 138.3490670434624 H 0.0 **** 0.06
36336 C 150.99266053162643 126.15829888191816 53.02135982157313 C 0.0 **** -0.24
36337 H 150.556688671262 125.16155809905597 53.09375110076273 H 0.0 **** 0.06
36338 H 152.07015498558087 126.07409491674441 52.8805282644463 H 0.0 **** 0.06
36339 H 150.7884722066526 126.71116370330488 53.93914780402676 H 0.0 **** 0.06
36340 H 150.55405696232606 126.68629257320036 52.17472902555241 H 0.0 **** 0.06
36341 C 66.95692725173114 157.7233381813012 195.40173672153992 C 0.0 **** -0.24
36342 H 66.68434518169153 158.35670173289236 194.55798335066845 H 0.0 **** 0.06
36343 H 67.80336374127 157.09390989542317 195.12447247459704 H 0.0 **** 0.06
36344 H 66.10919187509 157.09481964356604 195.67335097884768 H 0.0 **** 0.06
36345 H 67.23245215244947 158.3493798311432 196.2515532023636 H 0.0 **** 0.06
36346 C 37.41324980417829 41.22238399452743 96.14218205832056 C 0.0 **** -0.24
36347 H 38.29799545979873 41.69143897837364 96.572529222456 H 0.0 **** 0.06
36348 H 36.589064661426676 41.28042577392404 96.85275656523949 H 0.0 **** 0.06
36349 H 37.629058230913415 40.177617453125436 95.91951924918327 H 0.0 **** 0.06
36350 H 37.137890195539285 41.740215000960745 95.22294580684722 H 0.0 **** 0.06
36351 C 16.986977223850857 46.76250564502128 37.999632817151465 C 0.0 **** -0.24
36352 H 17.770865244339916 47.35473704656134 37.529047383111674 H 0.0 **** 0.06
36353 H 16.097721887110197 47.378159771176826 38.13479597487513 H 0.0 **** 0.06
36354 H 17.334428017761468 46.40615942754225 38.970161787182036 H 0.0 **** 0.06
36355 H 16.745546149994112 45.909713602692065 37.36445495159781 H 0.0 **** 0.06
36356 C 121.39939897513919 56.6220144982655 61.49588926597977 C 0.0 **** -0.24
36357 H 122.4492049560843 56.32836557800982 61.51009693334014 H 0.0 **** 0.06
36358 H 121.24382092057665 57.37618381408376 60.724409357230485 H 0.0 **** 0.06
36359 H 121.12493136999079 57.03272273768441 62.46769347351926 H 0.0 **** 0.06
36360 H 120.78142354151801 55.749531198390756 61.28247089486696 H 0.0 **** 0.06
36361 C 30.911566873186956 37.341357961880306 13.483711715853588 C 0.0 **** -0.24
36362 H 30.62172297968212 37.98006564057482 12.649320826463395 H 0.0 **** 0.06
36363 H 30.155392639363754 37.40196335877883 14.266574190851088 H 0.0 **** 0.06
36364 H 31.871744865338883 37.67366953892923 13.879448232594768 H 0.0 **** 0.06
36365 H 30.997846643971116 36.31106948972341 13.139649819323125 H 0.0 **** 0.06
36366 C 29.692448365365294 4.8834134800796605 58.0164188040649 C 0.0 **** -0.24
36367 H 29.790861548174846 5.671872943857551 57.27110636302979 H 0.0 **** 0.06
36368 H 29.5438742391499 3.9259750775295927 57.515007190568866 H 0.0 **** 0.06
36369 H 28.837252466775738 5.093938416481237 58.65808332013455 H 0.0 **** 0.06
36370 H 30.59873391327551 4.84018056218693 58.62093808967427 H 0.0 **** 0.06
36371 C 92.86677478175947 49.944475833063336 154.4326853262608 C 0.0 **** -0.24
36372 H 93.65899608662569 50.422512602413974 153.85709834187168 H 0.0 **** 0.06
36373 H 93.2420227981308 49.01737048130815 154.86799528353146 H 0.0 **** 0.06
36374 H 92.0248673847589 49.72337854406527 153.77560840303175 H 0.0 **** 0.06
36375 H 92.54024336283761 50.61428007279653 155.22781905042956 H 0.0 **** 0.06
36376 C 126.23974573115562 43.66083530024906 15.437253048987401 C 0.0 **** -0.24
36377 H 125.43243554720645 43.667993409217274 16.16909876572538 H 0.0 **** 0.06
36378 H 125.9397612010044 44.23367934004807 14.559538327939663 H 0.0 **** 0.06
36379 H 126.45480846729735 42.633341318125474 15.144626555295929 H 0.0 **** 0.06
36380 H 127.13197770911422 44.10832713360554 15.875748546988632 H 0.0 **** 0.06
36381 C 129.15962046709484 131.7771596256103 195.38589298528933 C 0.0 **** -0.24
36382 H 130.15077411475954 132.15785805960394 195.14099245033833 H 0.0 **** 0.06
36383 H 128.48534649844703 131.95280929307575 194.54675296569604 H 0.0 **** 0.06
36384 H 128.78138931537814 132.29047050260425 196.2706202292489 H 0.0 **** 0.06
36385 H 129.22097193979477 130.7075006471573 195.5852062958741 H 0.0 **** 0.06
36386 C 41.122676934374795 198.05548938150494 89.78587100918122 C 0.0 **** -0.24
36387 H 40.696331013045835 199.02891157438785 90.02640897042124 H 0.0 **** 0.06
36388 H 42.17850415102532 198.1729972577892 89.53856764896403 H 0.0 **** 0.06
36389 H 40.59590551573683 197.6277567182256 88.93259568137438 H 0.0 **** 0.06
36390 H 41.022118275349044 197.39238069714955 90.64530801763453 H 0.0 **** 0.06
36391 C 42.469809430665805 95.26810603176746 26.05073001492923 C 0.0 **** -0.24
36392 H 42.19630318360939 94.38148301154969 26.622641797969862 H 0.0 **** 0.06
36393 H 41.72021332685671 96.04518355100221 26.206827359372653 H 0.0 **** 0.06
36394 H 42.51745758948883 95.01653875669895 24.991624410432564 H 0.0 **** 0.06
36395 H 43.44304071323751 95.62883285763071 26.38380383067772 H 0.0 **** 0.06
36396 C 148.2425682896088 74.37768758917537 160.7361884728366 C 0.0 **** -0.24
36397 H 148.36843678548553 75.1580990227896 159.98444098530734 H 0.0 **** 0.06
36398 H 149.19512075778852 73.87380755070365 160.89878869382858 H 0.0 **** 0.06
36399 H 147.50326267118038 73.6553925088599 160.38899087997447 H 0.0 **** 0.06
36400 H 147.90362879520364 74.82428103913196 161.67046435869935 H 0.0 **** 0.06
36401 C 3.1231087315104276 144.9208480972398 197.52574135951969 C 0.0 **** -0.24
36402 H 2.15070756042374 145.386950780792 197.6821075110365 H 0.0 **** 0.06
36403 H 3.2600527293255084 144.71357008262777 196.46323284387105 H 0.0 **** 0.06
36404 H 3.1740521438068185 143.98785158564777 198.08745429615118 H 0.0 **** 0.06
36405 H 3.9082855695412775 145.59446704028284 197.868108090827 H 0.0 **** 0.06
36406 C 148.9554117979048 200.20521753563474 100.14266753950619 C 0.0 **** -0.24
36407 H 149.86297132518428 199.97118883673042 100.69920272281081 H 0.0 **** 0.06
36408 H 148.88688555977376 201.28308073320585 99.99811579642756 H 0.0 **** 0.06
36409 H 148.08730917388345 199.85541252985198 100.70130913104981 H 0.0 **** 0.06
36410 H 148.9866771691805 199.70922607241806 99.172615437986 H 0.0 **** 0.06
36411 C 104.75742601265013 42.70567397835242 60.15173716533944 C 0.0 **** -0.24
36412 H 105.2018815234071 43.51620970479928 59.5737594152081 H 0.0 **** 0.06
36413 H 104.2693824940141 42.00406364772567 59.47506027902013 H 0.0 **** 0.06
36414 H 104.02305578717876 43.114940935452694 60.84418646718443 H 0.0 **** 0.06
36415 H 105.5368684835707 42.18897037180477 60.711377181346776 H 0.0 **** 0.06
36416 C 83.61127902535229 129.1524343895328 129.79409114312057 C 0.0 **** -0.24
36417 H 82.74833796413516 129.77104469090892 130.0370379010311 H 0.0 **** 0.06
36418 H 84.03000394032664 129.47224179573954 128.8400346455395 H 0.0 **** 0.06
36419 H 83.30191858477612 128.10959732124758 129.72359926537786 H 0.0 **** 0.06
36420 H 84.36469619476945 129.25613795678373 130.5744835212173 H 0.0 **** 0.06
36421 C 49.403795295947006 82.56312887319699 13.218231637467653 C 0.0 **** -0.24
36422 H 49.89879001663935 83.31575043876965 13.831290467094888 H 0.0 **** 0.06
36423 H 49.041354724171285 81.75524518735865 13.855720428127029 H 0.0 **** 0.06
36424 H 50.1120996170355 82.16293093953134 12.492448096756604 H 0.0 **** 0.06
36425 H 48.562822796932096 83.01718145677297 12.693545394139704 H 0.0 **** 0.06
36426 C 83.25139292569806 106.77450336126633 69.42827816891219 C 0.0 **** -0.24
36427 H 83.03429641337512 107.84142825039972 69.36558411998993 H 0.0 **** 0.06
36428 H 84.14453140635167 106.55231894835875 68.84422519270728 H 0.0 **** 0.06
36429 H 82.40764056796495 106.20838140440212 69.03337307925398 H 0.0 **** 0.06
36430 H 83.41925305298092 106.499217623391 70.46856267027653 H 0.0 **** 0.06
36431 C 69.7698469620896 26.402192930605707 36.14362586300621 C 0.0 **** -0.24
36432 H 70.19218809446532 25.430001328035928 35.88918020020998 H 0.0 **** 0.06
36433 H 70.56898370366973 27.073249792344697 36.45989838449944 H 0.0 **** 0.06
36434 H 69.05127677251912 26.28458930155975 36.954852963440885 H 0.0 **** 0.06
36435 H 69.26800960785754 26.820461690708072 35.271368078428566 H 0.0 **** 0.06
36436 C 158.77326995877942 159.7645727566636 141.73482782461008 C 0.0 **** -0.24
36437 H 159.4251526964623 159.6848554419844 140.86459326348051 H 0.0 **** 0.06
36438 H 158.83902594354612 160.77228764820725 142.14513622760506 H 0.0 **** 0.06
36439 H 159.08599828480513 159.04284166312095 142.4897591910809 H 0.0 **** 0.06
36440 H 157.7445182964051 159.55816134081795 141.43798696271102 H 0.0 **** 0.06
36441 C 154.64512698186036 103.32555279433059 84.18095959056306 C 0.0 **** -0.24
36442 H 154.89357386945312 104.12801738002715 83.48573165318452 H 0.0 **** 0.06
36443 H 153.57497236466986 103.34172267992109 84.38624173496898 H 0.0 **** 0.06
36444 H 155.19675207952866 103.46678353806583 85.10978720960502 H 0.0 **** 0.06
36445 H 154.91683358521732 102.36675229274265 83.73958191361798 H 0.0 **** 0.06
36446 C 129.31885324420682 48.235414961670315 7.473901431801238 C 0.0 **** -0.24
36447 H 128.9793319668156 48.09204953811454 8.500107945219384 H 0.0 **** 0.06
36448 H 129.00874869626864 47.384974279930375 6.866684869731813 H 0.0 **** 0.06
36449 H 130.40579565777517 48.31777873960323 7.459118328063738 H 0.0 **** 0.06
36450 H 128.87950068692453 49.14837037957622 7.071296314380177 H 0.0 **** 0.06
36451 C 128.92267115315684 82.06471378979278 76.05184728962938 C 0.0 **** -0.24
36452 H 129.9151520825398 81.75260826536787 76.37652694518779 H 0.0 **** 0.06
36453 H 128.16781382819158 81.50459745042441 76.60483667732642 H 0.0 **** 0.06
36454 H 128.81099419594784 81.86994534458519 74.98541837055812 H 0.0 **** 0.06
36455 H 128.79701563058973 83.13061432784268 76.24278150382979 H 0.0 **** 0.06
36456 C 157.6942442198004 149.0697910442645 60.16667021232004 C 0.0 **** -0.24
36457 H 158.33073290033406 149.8894103474746 60.50155453552446 H 0.0 **** 0.06
36458 H 157.26178913039274 148.56946360501155 61.03321749223193 H 0.0 **** 0.06
36459 H 158.29077189390478 148.3582495305052 59.59502910237893 H 0.0 **** 0.06
36460 H 156.8964787977946 149.46391516395067 59.53851368995271 H 0.0 **** 0.06
36461 C 110.04179597322575 205.8537274331981 82.73520562821273 C 0.0 **** -0.24
36462 H 109.74293188756586 205.08671950491348 83.45022538038108 H 0.0 **** 0.06
36463 H 110.59179346892329 205.39088711987813 81.91589205338323 H 0.0 **** 0.06
36464 H 110.67671781586328 206.5865488476224 83.23307224050552 H 0.0 **** 0.06
36465 H 109.15333946677059 206.34942038858972 82.34319966206368 H 0.0 **** 0.06
36466 C 212.74883694029455 183.8714781267622 191.0776514373845 C 0.0 **** -0.24
36467 H 211.75587023065754 183.9929927410079 190.64498014620906 H 0.0 **** 0.06
36468 H 213.5040459621348 184.10465862173885 190.3258107903421 H 0.0 **** 0.06
36469 H 212.87535276965443 182.841960386142 191.41238879853836 H 0.0 **** 0.06
36470 H 212.86092895771716 184.54553999922527 191.9265902456769 H 0.0 **** 0.06
36471 C 165.74011651514178 178.46874425081361 149.98398525028335 C 0.0 **** -0.24
36472 H 166.335232941925 177.7755553133117 150.577884787328 H 0.0 **** 0.06
36473 H 166.2865593441947 178.7314811310514 149.0769589327458 H 0.0 **** 0.06
36474 H 165.5454448379367 179.370996585253 150.56486115896752 H 0.0 **** 0.06
36475 H 164.79464870502426 177.9988266570311 149.71557290093466 H 0.0 **** 0.06
36476 C 22.585513729311444 80.81030311210283 181.16606685509592 C 0.0 **** -0.24
36477 H 21.670365330064897 80.94417479055836 181.74223862261434 H 0.0 **** 0.06
36478 H 22.971787433373052 79.80338737483159 181.3256521548636 H 0.0 **** 0.06
36479 H 23.328211464158244 81.53963177750181 181.4892369445413 H 0.0 **** 0.06
36480 H 22.37218121564071 80.9537410637448 180.10631360680628 H 0.0 **** 0.06
36481 C 38.24874995932052 56.9149607089509 59.5272232493997 C 0.0 **** -0.24
36482 H 38.01497747153343 57.91766297864035 59.17116328593991 H 0.0 **** 0.06
36483 H 38.60710549153953 56.96789840446803 60.55523494599615 H 0.0 **** 0.06
36484 H 39.01983662165924 56.47552975977902 58.89530005939352 H 0.0 **** 0.06
36485 H 37.35036634886271 56.29758229439034 59.486677612076164 H 0.0 **** 0.06
36486 C 164.80424784773822 129.06572387722366 103.85083604396785 C 0.0 **** -0.24
36487 H 164.49236648610713 128.42219629798086 104.67296036172381 H 0.0 **** 0.06
36488 H 163.95879658141263 129.2360112677551 103.18361755487071 H 0.0 **** 0.06
36489 H 165.61088005565475 128.58383073928542 103.29925685227998 H 0.0 **** 0.06
36490 H 165.15238168496234 130.01937478741553 104.24704546019616 H 0.0 **** 0.06
36491 C 108.96149030076901 0.0053235234594737335 163.7094472761931 C 0.0 **** -0.24
36492 H 108.36609039347377 -0.16414055885962142 162.81239097421428 H 0.0 **** 0.06
36493 H 108.76510451138262 1.0075089172601324 164.09241361978775 H 0.0 **** 0.06
36494 H 110.0191028406519 -0.09084397190169113 163.46750175558896 H 0.0 **** 0.06
36495 H 108.69312093602036 -0.731866294195882 164.46694263146688 H 0.0 **** 0.06
36496 C 198.17822256217187 46.6720762039227 121.65276604481669 C 0.0 **** -0.24
36497 H 198.09819726329437 47.41159124320846 120.85553734004502 H 0.0 **** 0.06
36498 H 198.72250825013862 47.10339514544279 122.49343435784938 H 0.0 **** 0.06
36499 H 198.71284803354678 45.79715030823441 121.2837505861604 H 0.0 **** 0.06
36500 H 197.18063102667125 46.378849951236504 121.97797768340733 H 0.0 **** 0.06
36501 C 13.002726232365887 15.879509869356468 7.248374097345973 C 0.0 **** -0.24
36502 H 13.411296523794164 15.878166476801312 8.258525885922538 H 0.0 **** 0.06
36503 H 12.654854993337835 14.877948352626618 6.996546265920529 H 0.0 **** 0.06
36504 H 13.776419494588708 16.184205014067686 6.5442230288125245 H 0.0 **** 0.06
36505 H 12.167341460709366 16.578470569856677 7.194872891814825 H 0.0 **** 0.06
36506 C 64.96452126572588 165.5742010627073 34.603893817518724 C 0.0 **** -0.24
36507 H 65.7160625190236 164.78507968648347 34.63135902946489 H 0.0 **** 0.06
36508 H 65.43886148211111 166.53483231812785 34.80388152180794 H 0.0 **** 0.06
36509 H 64.20607009571057 165.3786617017805 35.36210244456433 H 0.0 **** 0.06
36510 H 64.4971120818807 165.59654275227246 33.6196989018233 H 0.0 **** 0.06
36511 C 143.19906614334326 204.30347465696397 178.392417884299 C 0.0 **** -0.24
36512 H 142.23481915520279 204.77503210585232 178.20078159386227 H 0.0 **** 0.06
36513 H 143.92838942704958 205.06575748153716 178.66446486761345 H 0.0 **** 0.06
36514 H 143.53404184933913 203.7844265778537 177.4942132809278 H 0.0 **** 0.06
36515 H 143.09801512655645 203.58837877738998 179.20823446613758 H 0.0 **** 0.06
36516 C 96.7537600869175 164.8308117879969 6.712931686674892 C 0.0 **** -0.24
36517 H 97.45284902467414 164.60499104220756 7.51883354367007 H 0.0 **** 0.06
36518 H 97.1131983069631 164.38604155612043 5.785338169910531 H 0.0 **** 0.06
36519 H 96.67617694553012 165.9111843339139 6.59323145470232 H 0.0 **** 0.06
36520 H 95.77371801062058 164.42143155039338 6.957327843255925 H 0.0 **** 0.06
36521 C 72.7852064623112 46.18455860119485 110.59070661404532 C 0.0 **** -0.24
36522 H 72.63777317908408 45.49185318697681 109.762557013418 H 0.0 **** 0.06
36523 H 73.85330985920517 46.32695317266524 110.75849539817078 H 0.0 **** 0.06
36524 H 72.32776720821293 45.77628098003896 111.49123303174177 H 0.0 **** 0.06
36525 H 72.32376105635 47.142047489579284 110.34927484114566 H 0.0 **** 0.06
36526 C 189.0733174167778 4.22441843764954 170.4186115641523 C 0.0 **** -0.24
36527 H 188.70223382869358 4.96113341090804 169.70655879588884 H 0.0 **** 0.06
36528 H 189.7264994886171 3.520247262209878 169.90405713626203 H 0.0 **** 0.06
36529 H 188.232434786294 3.6881079023760677 170.85719625455098 H 0.0 **** 0.06
36530 H 189.6313687124889 4.730279324550793 171.20635558790704 H 0.0 **** 0.06
36531 C 167.46162737247596 149.2234277278264 192.98851760256312 C 0.0 **** -0.24
36532 H 167.96344536433125 148.26526328134054 193.12515120425212 H 0.0 **** 0.06
36533 H 166.4538794406823 149.16700298013575 193.4017699642637 H 0.0 **** 0.06
36534 H 167.40621771892393 149.45558845377553 191.92539705959305 H 0.0 **** 0.06
36535 H 168.02201740599673 150.00317290423982 193.50270003943564 H 0.0 **** 0.06
36536 C 180.12390317757215 30.718873760282264 7.727649929018185 C 0.0 **** -0.24
36537 H 179.70465432531591 31.030490923869806 6.770924115872731 H 0.0 **** 0.06
36538 H 180.27648025809668 29.63991020759167 7.723289624569929 H 0.0 **** 0.06
36539 H 179.43520341794442 30.985392082705502 8.52928186390551 H 0.0 **** 0.06
36540 H 181.07779965880928 31.221364040121045 7.886073880563885 H 0.0 **** 0.06
36541 C 195.34545521212783 143.34015399679674 143.78865626537095 C 0.0 **** -0.24
36542 H 195.4348488817541 143.46759638531398 142.71065101676243 H 0.0 **** 0.06
36543 H 195.69278365979858 144.24328952631674 144.2914825959772 H 0.0 **** 0.06
36544 H 195.95132373906003 142.49120222679193 144.10566314243084 H 0.0 **** 0.06
36545 H 194.30253138206615 143.15872829952463 144.04818802709042 H 0.0 **** 0.06
36546 C 63.86155194996064 19.28867386498962 189.96629504773767 C 0.0 **** -0.24
36547 H 63.53758030228613 18.323319013591288 190.35525972484777 H 0.0 **** 0.06
36548 H 64.94294738946547 19.37994304670508 190.0762405155717 H 0.0 **** 0.06
36549 H 63.370901796033934 20.087679629666837 190.521056555849 H 0.0 **** 0.06
36550 H 63.5964794416756 19.362566022485623 188.9113212750383 H 0.0 **** 0.06
36551 C 135.10210950645705 82.6979290210379 187.46132852909847 C 0.0 **** -0.24
36552 H 134.19216717313918 82.1733616443121 187.75365567932977 H 0.0 **** 0.06
36553 H 134.89124694288063 83.76305523425275 187.36028752804893 H 0.0 **** 0.06
36554 H 135.45680804535118 82.30550757284142 186.50856387763838 H 0.0 **** 0.06
36555 H 135.86723914789928 82.54957827258546 188.22278424637085 H 0.0 **** 0.06
36556 C 191.2969047081611 60.13816541840818 143.07839089291286 C 0.0 **** -0.24
36557 H 192.18924028692427 60.5328588192546 143.56365006183836 H 0.0 **** 0.06
36558 H 190.51289172137712 60.89622857679173 143.088881073553 H 0.0 **** 0.06
36559 H 190.9539245212871 59.252938634657966 143.61366957175704 H 0.0 **** 0.06
36560 H 191.531467703997 59.87150254480653 142.04847622250918 H 0.0 **** 0.06
36561 C 144.32212031089995 151.68856918813492 81.12190036094769 C 0.0 **** -0.24
36562 H 144.10692864570353 152.27287133331083 82.01606626980954 H 0.0 **** 0.06
36563 H 143.56126357218824 151.88691454006454 80.36654462150294 H 0.0 **** 0.06
36564 H 144.3174371198573 150.62751325397323 81.37151708736961 H 0.0 **** 0.06
36565 H 145.30197337521588 151.966306896559 80.73435570142819 H 0.0 **** 0.06
36566 C 191.48184085312548 54.323321395174716 152.47549687334237 C 0.0 **** -0.24
36567 H 191.52392277813323 53.273779464907335 152.18504898212183 H 0.0 **** 0.06
36568 H 192.48423755525454 54.75067826615613 152.4375745042903 H 0.0 **** 0.06
36569 H 191.08890335772054 54.40458143136283 153.4883957076994 H 0.0 **** 0.06
36570 H 190.82941090731686 54.864037534352335 151.78869531031444 H 0.0 **** 0.06
36571 C 31.891243347773298 184.2731605249316 208.89292065810469 C 0.0 **** -0.24
36572 H 32.55272149294578 183.42308373797056 209.0651335666171 H 0.0 **** 0.06
36573 H 32.23723052270935 184.8315322280559 208.02196481215066 H 0.0 **** 0.06
36574 H 31.899156864269344 184.9222218747123 209.76872993068008 H 0.0 **** 0.06
36575 H 30.877758741783794 183.91359388174226 208.71512887459212 H 0.0 **** 0.06
36576 C 11.095143878560208 159.73761198870108 138.91266441544457 C 0.0 **** -0.24
36577 H 11.18714505189405 160.81665691132386 139.03457818954536 H 0.0 **** 0.06
36578 H 10.25616147166491 159.37514031188664 139.5075921084994 H 0.0 **** 0.06
36579 H 12.013715780831262 159.2553725239469 139.24723413676793 H 0.0 **** 0.06
36580 H 10.923137626529694 159.50398047362256 137.86183126671483 H 0.0 **** 0.06
36581 C 67.21060646522335 105.52878927849822 102.69209057057067 C 0.0 **** -0.24
36582 H 67.97597637509284 106.14716947758286 102.22291259721997 H 0.0 **** 0.06
36583 H 66.33938634020555 105.47306743253581 102.04051426481881 H 0.0 **** 0.06
36584 H 66.9237836144953 105.96855516975849 103.64684904001471 H 0.0 **** 0.06
36585 H 67.60546329072625 104.52616132667883 102.85852201989364 H 0.0 **** 0.06
36586 C 80.19553989145108 158.83053607296077 109.17339216125369 C 0.0 **** -0.24
36587 H 81.07918623913902 159.22646820818005 108.67319119368817 H 0.0 **** 0.06
36588 H 80.45745355584121 158.52858794638144 110.18749013433164 H 0.0 **** 0.06
36589 H 79.82187086636229 157.96843297396862 108.62152820046093 H 0.0 **** 0.06
36590 H 79.4245282600679 159.60045133781574 109.21133548033872 H 0.0 **** 0.06
36591 C 90.21786720162471 153.74146271835508 67.59326940388591 C 0.0 **** -0.24
36592 H 91.0580991008572 154.40189181947267 67.37887515282797 H 0.0 **** 0.06
36593 H 90.49441197669326 153.0481766752331 68.3883521708974 H 0.0 **** 0.06
36594 H 89.95694564695044 153.18145422490488 66.69610077938714 H 0.0 **** 0.06
36595 H 89.36171185058821 154.3368148853292 67.91234301349857 H 0.0 **** 0.06
36596 C 162.00465104835428 127.93484755763176 92.1755886299257 C 0.0 **** -0.24
36597 H 161.48091099698388 128.4006151306727 93.01108972719516 H 0.0 **** 0.06
36598 H 162.28362637127208 126.91585172312752 92.44468230025018 H 0.0 **** 0.06
36599 H 162.90185381299386 128.50883268170895 91.94368905051795 H 0.0 **** 0.06
36600 H 161.35061991340882 127.91458840928733 91.30335644033431 H 0.0 **** 0.06
36601 C 211.99844334760795 137.16652583026837 25.172602655324795 C 0.0 **** -0.24
36602 H 211.2016957334181 137.84413888220678 25.480991929111156 H 0.0 **** 0.06
36603 H 212.2403056056902 137.344241999575 24.124828469395595 H 0.0 **** 0.06
36604 H 211.66763621677094 136.13605477710792 25.299228776213624 H 0.0 **** 0.06
36605 H 212.88242339219946 137.34268444348436 25.78554519850374 H 0.0 **** 0.06
36606 C 35.355304505961 160.22418530578332 119.73583716802737 C 0.0 **** -0.24
36607 H 34.46840198211473 160.30053714415567 120.36565417594115 H 0.0 **** 0.06
36608 H 36.195825312482285 159.8718333112143 120.33278520870145 H 0.0 **** 0.06
36609 H 35.58983151148408 161.20414950976289 119.31979223686555 H 0.0 **** 0.06
36610 H 35.16481728707029 159.52179184625658 118.92533784179658 H 0.0 **** 0.06
36611 C 129.78563769935528 187.3157394496752 174.171635338147 C 0.0 **** -0.24
36612 H 128.98732405734495 187.74231652235898 173.56492168710835 H 0.0 **** 0.06
36613 H 129.48150430413477 186.33152183353218 174.53127924495942 H 0.0 **** 0.06
36614 H 129.983785515144 187.96741641541558 175.02144983475972 H 0.0 **** 0.06
36615 H 130.68807896441893 187.2194235959588 173.56829700091595 H 0.0 **** 0.06
36616 C 42.99647888252122 208.37551459606772 134.3328431005309 C 0.0 **** -0.24
36617 H 43.28937105188845 209.4182329963109 134.20641657120183 H 0.0 **** 0.06
36618 H 43.28958554652115 207.8071434931285 133.45074452793716 H 0.0 **** 0.06
36619 H 41.91517407269623 208.31581682618045 134.46224652151 H 0.0 **** 0.06
36620 H 43.49132261180739 207.96442199384717 135.2123319749349 H 0.0 **** 0.06
36621 C 100.98427651620432 85.31700135358403 61.64188725267701 C 0.0 **** -0.24
36622 H 100.68513212580228 84.77381796240445 62.53852964554568 H 0.0 **** 0.06
36623 H 101.40973996263585 84.6191455072971 60.919451621443216 H 0.0 **** 0.06
36624 H 101.72953687412456 86.06732517377213 61.90436446447697 H 0.0 **** 0.06
36625 H 100.11336180755416 85.80593917049828 61.20638581404285 H 0.0 **** 0.06
36626 C 13.182300827241761 134.3073422615745 214.8089741323327 C 0.0 **** -0.24
36627 H 13.937125143127787 133.7323411574696 215.34552992818558 H 0.0 **** 0.06
36628 H 12.33465661792934 134.49669425013394 215.46808054781218 H 0.0 **** 0.06
36629 H 12.848192698919775 133.74396687795115 213.93827208449966 H 0.0 **** 0.06
36630 H 13.610449662213625 135.2562560641923 214.4861346911254 H 0.0 **** 0.06
36631 C 114.05002097466026 28.26512926417041 157.3219071989895 C 0.0 **** -0.24
36632 H 113.47680554588338 27.730088876822805 156.56451298238204 H 0.0 **** 0.06
36633 H 115.08946697930945 28.34330041606293 157.00151458068297 H 0.0 **** 0.06
36634 H 113.99932727170223 27.723522629355784 158.2665243384031 H 0.0 **** 0.06
36635 H 113.6340804340753 29.26430504387116 157.4539161993972 H 0.0 **** 0.06
36636 C 209.3245096651812 148.53694660443392 123.42262951056266 C 0.0 **** -0.24
36637 H 210.0830301444844 147.8988568063067 122.96984013462291 H 0.0 **** 0.06
36638 H 209.5983015765691 148.74790642268147 124.4570931909624 H 0.0 **** 0.06
36639 H 208.36079697717523 148.02871266739464 123.39835506054108 H 0.0 **** 0.06
36640 H 209.25755020593425 149.47192515047817 122.86700763037778 H 0.0 **** 0.06
36641 C 146.4113352544971 142.008441603567 25.387825858911683 C 0.0 **** -0.24
36642 H 145.35969922464312 142.05322856721028 25.103613023616475 H 0.0 **** 0.06
36643 H 146.8586254479622 142.997252549971 25.28184214417223 H 0.0 **** 0.06
36644 H 146.93194004396423 141.30234319644086 24.741616284662015 H 0.0 **** 0.06
36645 H 146.49302480620923 141.68215522612286 26.42479748799346 H 0.0 **** 0.06
36646 C 145.38464806129008 40.1959135718448 41.080721031749775 C 0.0 **** -0.24
36647 H 146.07410895320203 40.2851146417091 40.24084187697882 H 0.0 **** 0.06
36648 H 144.71246899221484 39.35427486463553 40.91013749729282 H 0.0 **** 0.06
36649 H 144.8028644326708 41.1125804052254 41.17142849370727 H 0.0 **** 0.06
36650 H 145.94881361306693 40.03048395778191 41.99836769754465 H 0.0 **** 0.06
36651 C 157.9474816412498 54.28287873239705 188.90713454881828 C 0.0 **** -0.24
36652 H 157.55475982081202 53.93715434673015 187.95065487514233 H 0.0 **** 0.06
36653 H 158.85994958247622 53.735290383802464 189.14315656962262 H 0.0 **** 0.06
36654 H 157.20621547879762 54.11058510079039 189.68707397389343 H 0.0 **** 0.06
36655 H 158.16875974852337 55.34826108362961 188.84435255364772 H 0.0 **** 0.06
36656 C 62.81908631638419 6.151541814615413 195.1641272783193 C 0.0 **** -0.24
36657 H 63.46596380091833 5.337037033301016 195.4890589739201 H 0.0 **** 0.06
36658 H 63.29370542526368 6.686931400336988 194.34200756423488 H 0.0 **** 0.06
36659 H 62.652233611683585 6.836105582491001 195.99651767969385 H 0.0 **** 0.06
36660 H 61.863778785725515 5.745392482860623 194.83117625440102 H 0.0 **** 0.06
36661 C 80.09528905810903 195.81912578192816 38.36151218785007 C 0.0 **** -0.24
36662 H 80.35809745778106 196.85419360902776 38.574679814983995 H 0.0 **** 0.06
36663 H 80.07372423810808 195.2507346762736 39.29171467021918 H 0.0 **** 0.06
36664 H 80.83573957213365 195.38738638585625 37.68848896481296 H 0.0 **** 0.06
36665 H 79.11299911300277 195.78266670924984 37.89059145725717 H 0.0 **** 0.06
36666 C 29.187749338974527 147.05447022686673 128.55649022631667 C 0.0 **** -0.24
36667 H 28.28194849086961 146.51088421491573 128.82603283244117 H 0.0 **** 0.06
36668 H 30.021529849064876 146.35502614696588 128.48288176193978 H 0.0 **** 0.06
36669 H 29.40457835192663 147.7998872251444 129.3205195357433 H 0.0 **** 0.06
36670 H 29.042908949837567 147.5491060734903 127.59615915122589 H 0.0 **** 0.06
36671 C 151.264036851563 190.24810208660375 167.7420892324571 C 0.0 **** -0.24
36672 H 151.83365481150963 189.76505183788328 168.53605143235097 H 0.0 **** 0.06
36673 H 150.52204128434857 189.55217929157467 167.35296695424483 H 0.0 **** 0.06
36674 H 151.94083180039956 190.5455850132625 166.94015552672886 H 0.0 **** 0.06
36675 H 150.76306645960943 191.1304094295422 168.14038755689245 H 0.0 **** 0.06
36676 C 137.11958260246922 150.34165229666996 184.8255994770616 C 0.0 **** -0.24
36677 H 137.84748311692994 150.94973124340163 184.28825045051633 H 0.0 **** 0.06
36678 H 136.35603959904927 150.9874752580651 185.259640866187 H 0.0 **** 0.06
36679 H 137.6229963534846 149.7885218805219 185.61863130344597 H 0.0 **** 0.06
36680 H 136.6520368204025 149.64028710045437 184.13426385243275 H 0.0 **** 0.06
36681 C 171.18703519449758 188.6022210081104 15.682265773069105 C 0.0 **** -0.24
36682 H 170.66231186150088 187.78102100948553 15.194846950281715 H 0.0 **** 0.06
36683 H 172.25519356853164 188.38509659152578 15.708454015403277 H 0.0 **** 0.06
36684 H 170.8147916992151 188.71802435890504 16.69928812800893 H 0.0 **** 0.06
36685 H 171.01674005644838 189.52391055580495 15.124601802568918 H 0.0 **** 0.06
36686 C 50.28996958036164 12.455930003780466 142.0644224471373 C 0.0 **** -0.24
36687 H 49.717358224513774 11.987191130262445 142.8642788266551 H 0.0 **** 0.06
36688 H 50.16760652212871 11.882851071122687 141.14575931923787 H 0.0 **** 0.06
36689 H 51.34476054292814 12.480867512029121 142.33993161164273 H 0.0 **** 0.06
36690 H 49.93138142526982 13.473805474006909 141.90894508185278 H 0.0 **** 0.06
36691 C 111.16584950372395 156.69323854592528 58.939449340502364 C 0.0 **** -0.24
36692 H 112.12456516728606 156.4047718945505 59.36949281540916 H 0.0 **** 0.06
36693 H 110.37199929015846 156.09447232523792 59.3853898962126 H 0.0 **** 0.06
36694 H 111.18581671877287 156.5269961415126 57.86270475691144 H 0.0 **** 0.06
36695 H 110.98241792562304 157.7493641005874 59.14032449472212 H 0.0 **** 0.06
36696 C 65.0013460812919 139.56198210611592 167.25048017606505 C 0.0 **** -0.24
36697 H 64.21684844617079 138.8144658714446 167.36545871656733 H 0.0 **** 0.06
36698 H 65.88949412235417 139.2436645722671 167.7961367874904 H 0.0 **** 0.06
36699 H 64.65405519672993 140.51624657106885 167.64673326634653 H 0.0 **** 0.06
36700 H 65.24395710513244 139.67466098537471 166.19443402380745 H 0.0 **** 0.06
36701 C 177.41066186275228 158.81003053665236 136.1849540294072 C 0.0 **** -0.24
36702 H 177.50673731410708 158.39902977069823 135.1793850186737 H 0.0 **** 0.06
36703 H 178.17790734528143 159.56922826303662 136.34117931975504 H 0.0 **** 0.06
36704 H 177.53461561469646 158.01152595412248 136.91656529084668 H 0.0 **** 0.06
36705 H 176.42509149034467 159.25902005441992 136.30016496040946 H 0.0 **** 0.06
36706 C 189.1959566986879 129.7346486663651 109.70993158002038 C 0.0 **** -0.24
36707 H 190.19019078815637 130.10971199072992 109.46642342626056 H 0.0 **** 0.06
36708 H 188.87291354873122 130.1543391248851 110.66303188556158 H 0.0 **** 0.06
36709 H 189.22689026647464 128.6472309596616 109.78362686561341 H 0.0 **** 0.06
36710 H 188.49571325845454 130.02667134800464 108.92807609825145 H 0.0 **** 0.06
36711 C 216.33605921049482 122.22483509260036 122.73377421875773 C 0.0 **** -0.24
36712 H 215.33026172945992 122.37018594592189 122.33966929267518 H 0.0 **** 0.06
36713 H 216.95854810391094 121.75281727973504 121.97345066699665 H 0.0 **** 0.06
36714 H 216.29151394677257 121.58495190295815 123.61482549575425 H 0.0 **** 0.06
36715 H 216.76232352288716 123.18997841500561 123.00592900149599 H 0.0 **** 0.06
36716 C 72.67228492705469 192.12350081392577 106.59320100152387 C 0.0 **** -0.24
36717 H 72.3658077456546 191.08607226146256 106.45819404710566 H 0.0 **** 0.06
36718 H 72.33066855952221 192.71738941816412 105.74509916231166 H 0.0 **** 0.06
36719 H 73.75945785605019 192.174581292856 106.65869875998003 H 0.0 **** 0.06
36720 H 72.2343949408578 192.51519775625337 107.51074935692897 H 0.0 **** 0.06
36721 C 157.81455076995923 39.708946657368415 21.930078593096823 C 0.0 **** -0.24
36722 H 158.3465003292415 38.940846707229866 22.492591962809684 H 0.0 **** 0.06
36723 H 156.85304098284558 39.904227654057536 22.403755043512916 H 0.0 **** 0.06
36724 H 157.65436904068076 39.36510345723758 20.90868944719105 H 0.0 **** 0.06
36725 H 158.4068692778514 40.624410796427185 21.91698857188055 H 0.0 **** 0.06
36726 C 37.971213256392176 44.82864639848813 6.442854042731042 C 0.0 **** -0.24
36727 H 37.80105952556647 44.91860322762267 5.369894762724506 H 0.0 **** 0.06
36728 H 39.04301055924341 44.84523415311345 6.642327190598991 H 0.0 **** 0.06
36729 H 37.55045062653376 43.88830766934795 6.7989804535503 H 0.0 **** 0.06
36730 H 37.491520708696115 45.66031093783462 6.957965946629159 H 0.0 **** 0.06
36731 C 100.0443886595748 188.0876026812197 100.91511474453903 C 0.0 **** -0.24
36732 H 100.861554664965 188.45271490991436 100.29230985440806 H 0.0 **** 0.06
36733 H 99.26734260095692 187.6610303188647 100.28001743211202 H 0.0 **** 0.06
36734 H 99.63064371937689 188.91456623629068 101.49180402968206 H 0.0 **** 0.06
36735 H 100.42035233593789 187.32292137000232 101.59436428057593 H 0.0 **** 0.06
36736 C 27.262698813850704 192.7609447207879 0.9973372506444562 C 0.0 **** -0.24
36737 H 26.41384035990555 193.25457276896014 0.523055867904354 H 0.0 **** 0.06
36738 H 28.04453737179901 192.593402612229 0.2561252306510866 H 0.0 **** 0.06
36739 H 26.94184435135628 191.80539595186016 1.4103094951558575 H 0.0 **** 0.06
36740 H 27.649225514024238 193.39192919315096 1.7974358917914444 H 0.0 **** 0.06
36741 C 131.13446314962238 216.8464572589833 65.97846958769509 C 0.0 **** -0.24
36742 H 132.0617165276384 217.1484861738483 65.49104076955058 H 0.0 **** 0.06
36743 H 131.1819999313273 215.7856730363813 66.22420566735775 H 0.0 **** 0.06
36744 H 130.29511438351238 217.02741598918237 65.30631503744985 H 0.0 **** 0.06
36745 H 130.99985270145646 217.42632580416418 66.89218817328367 H 0.0 **** 0.06
36746 C 64.30957848691031 186.13051868390096 167.74107512507317 C 0.0 **** -0.24
36747 H 64.85764642275808 185.69729022237635 168.57749593248343 H 0.0 **** 0.06
36748 H 63.35384665969349 185.61847522767815 167.62871716002297 H 0.0 **** 0.06
36749 H 64.89298980757735 186.0183044887441 166.82742840157948 H 0.0 **** 0.06
36750 H 64.13481806293146 187.18958136592587 167.93190010856057 H 0.0 **** 0.06
36751 C 26.78859012795047 119.41370421542109 169.25827366726105 C 0.0 **** -0.24
36752 H 26.193794934899586 120.31619808137305 169.11967487052297 H 0.0 **** 0.06
36753 H 27.846861643286047 119.65909484885799 169.1739471629073 H 0.0 **** 0.06
36754 H 26.522444557429253 118.68266139720077 168.4950069607185 H 0.0 **** 0.06
36755 H 26.589956414091205 118.99641017356186 170.24591402822867 H 0.0 **** 0.06
36756 C 38.347024018111625 16.104250336297426 198.2124710981544 C 0.0 **** -0.24
36757 H 37.77904191783614 15.797479356374467 199.09139433440072 H 0.0 **** 0.06
36758 H 37.665576020906656 16.255550202903976 197.37494908389914 H 0.0 **** 0.06
36759 H 39.06893983766679 15.32838034088941 197.95855491509866 H 0.0 **** 0.06
36760 H 38.87305431512567 17.034442950051414 198.42620213680814 H 0.0 **** 0.06
36761 C 18.305151293896472 37.25320729698629 147.632941664579 C 0.0 **** -0.24
36762 H 18.19639847714177 38.319632382401934 147.43674918289628 H 0.0 **** 0.06
36763 H 17.722812555550433 36.6886461313283 146.90427203253955 H 0.0 **** 0.06
36764 H 17.944612991818076 37.03017564553987 148.63763722518593 H 0.0 **** 0.06
36765 H 19.35538870861879 36.974505741638936 147.55289833195496 H 0.0 **** 0.06
36766 C 98.33614690337794 65.80390125757344 101.34591900785425 C 0.0 **** -0.24
36767 H 97.31934668193554 65.82916818722981 100.95297493732848 H 0.0 **** 0.06
36768 H 98.44074004474527 64.96050135816 102.02876747465469 H 0.0 **** 0.06
36769 H 98.54215393684058 66.73119363468084 101.87942633346718 H 0.0 **** 0.06
36770 H 99.04074858637586 65.69332454015756 100.52184656614709 H 0.0 **** 0.06
36771 C 136.19021878619048 59.739532657135896 206.47193807354728 C 0.0 **** -0.24
36772 H 136.80730388966862 60.40470352786889 205.86686051995994 H 0.0 **** 0.06
36773 H 135.13812100199107 59.91787590901913 206.25017903742219 H 0.0 **** 0.06
36774 H 136.3777841042401 59.9321525370803 207.52760703043998 H 0.0 **** 0.06
36775 H 136.43980390648682 58.70400495208784 206.24109012997195 H 0.0 **** 0.06
36776 C 89.27408658800937 40.18442312467991 164.02333180676726 C 0.0 **** -0.24
36777 H 89.00294040644883 40.66786208223418 164.96255099344413 H 0.0 **** 0.06
36778 H 88.48097799531172 39.49648211103303 163.7277356548816 H 0.0 **** 0.06
36779 H 90.20459276314449 39.63190426572173 164.1549460572544 H 0.0 **** 0.06
36780 H 89.40604375022735 40.941105086819306 163.2508650902348 H 0.0 **** 0.06
36781 C 17.58375557731351 95.64670542421923 77.46209689068058 C 0.0 **** -0.24
36782 H 17.635052152325116 94.67736807826735 76.96665072690797 H 0.0 **** 0.06
36783 H 17.2661859287265 96.40464654053086 76.74568574679205 H 0.0 **** 0.06
36784 H 18.565756050397326 95.90647489780294 77.85554574729804 H 0.0 **** 0.06
36785 H 16.86495768461363 95.5975876155244 78.28063899942475 H 0.0 **** 0.06
36786 C 0.1857617721348035 212.12938986235247 206.79676575552165 C 0.0 **** -0.24
36787 H -0.7563633325926062 212.3787414331423 207.28443183926336 H 0.0 **** 0.06
36788 H 0.9157177921064559 211.82711645044844 207.5486009456077 H 0.0 **** 0.06
36789 H 0.5571114915233224 213.00087148617192 206.2584709611579 H 0.0 **** 0.06
36790 H 0.025419070694880475 211.31013759352473 206.0951468471506 H 0.0 **** 0.06
36791 C 113.67943440364625 111.87762967648467 129.42609046916328 C 0.0 **** -0.24
36792 H 112.77419489181268 111.83877056243676 130.0319803367138 H 0.0 **** 0.06
36793 H 114.54545241560412 111.662610703925 130.05188498543947 H 0.0 **** 0.06
36794 H 113.78300494594352 112.87259798530323 128.99148677758444 H 0.0 **** 0.06
36795 H 113.61436321277723 111.1379771654864 128.62782168774197 H 0.0 **** 0.06
36796 C 211.6504710541216 53.40401406416828 197.11340016918513 C 0.0 **** -0.24
36797 H 210.61321592670078 53.076435053260894 197.17967927887764 H 0.0 **** 0.06
36798 H 211.7486663779466 54.1381797021607 196.31305983570354 H 0.0 **** 0.06
36799 H 212.28929076202687 52.54709967272751 196.90143500702817 H 0.0 **** 0.06
36800 H 211.94974529888205 53.855704861221554 198.05896903497552 H 0.0 **** 0.06
36801 C 118.83779147892214 105.04875682453734 104.7846527870564 C 0.0 **** -0.24
36802 H 119.31643577200033 106.0226742487291 104.67623392474253 H 0.0 **** 0.06
36803 H 117.9816038916694 105.13771663149667 105.45293049561052 H 0.0 **** 0.06
36804 H 119.5517744240379 104.33792671580211 105.20056509283954 H 0.0 **** 0.06
36805 H 118.5027197335183 104.6984657585342 103.80866906725468 H 0.0 **** 0.06
36806 C 23.025344958700032 203.95249428988572 33.79811394198224 C 0.0 **** -0.24
36807 H 24.007495250840975 204.3759183367728 34.00714506006899 H 0.0 **** 0.06
36808 H 22.723436860614953 204.21894971505478 32.78496234809617 H 0.0 **** 0.06
36809 H 22.30064692264787 204.3478516677224 34.510126893412234 H 0.0 **** 0.06
36810 H 23.070100002556472 202.8670548867351 33.89115391869555 H 0.0 **** 0.06
36811 C 56.02198105507074 75.92522173222562 105.18662767147377 C 0.0 **** -0.24
36812 H 55.22598984618776 76.63185311610187 105.41979114562737 H 0.0 **** 0.06
36813 H 56.97427335243549 76.32043358051959 105.54232014663152 H 0.0 **** 0.06
36814 H 56.07057592227267 75.77582467773868 104.10759513687078 H 0.0 **** 0.06
36815 H 55.818054168952074 74.97269127721643 105.67657226870661 H 0.0 **** 0.06
36816 C 115.02833953926721 99.55541013237978 92.42550735875847 C 0.0 **** -0.24
36817 H 115.07069157201742 100.22930127592913 91.56897236613503 H 0.0 **** 0.06
36818 H 116.01228884072601 99.50072463301707 92.8922143541522 H 0.0 **** 0.06
36819 H 114.72849005814776 98.56237042113945 92.09122072747579 H 0.0 **** 0.06
36820 H 114.30313635619284 99.93022768180042 93.14775820420385 H 0.0 **** 0.06
36821 C 138.35303957562428 213.7359224140883 24.562897450632136 C 0.0 **** -0.24
36822 H 137.3587926914136 214.09381279907393 24.295469436577264 H 0.0 **** 0.06
36823 H 139.0931306966255 214.19800011192703 23.909665892869327 H 0.0 **** 0.06
36824 H 138.39155625223293 212.65296198462508 24.4491640097296 H 0.0 **** 0.06
36825 H 138.56666444811339 214.00031308540358 25.599287410797388 H 0.0 **** 0.06
36826 C 69.72906400932027 167.08037094198608 11.26933015830177 C 0.0 **** -0.24
36827 H 68.87720076907698 166.49604231483667 10.923909858283963 H 0.0 **** 0.06
36828 H 70.10161958835857 166.66125610120892 12.2042436486704 H 0.0 **** 0.06
36829 H 69.41907590883062 168.112979324328 11.432205744161195 H 0.0 **** 0.06
36830 H 70.51827031304975 167.0527758043968 10.517687914152532 H 0.0 **** 0.06
36831 C 62.217301022677475 54.811680525084284 212.2151792511682 C 0.0 **** -0.24
36832 H 61.14628091458218 54.8511572513886 212.0182842510743 H 0.0 **** 0.06
36833 H 62.65680520526928 55.792049946372515 212.03328368881589 H 0.0 **** 0.06
36834 H 62.68052781215681 54.07753247455412 211.55496811782407 H 0.0 **** 0.06
36835 H 62.385695874569876 54.524191911193896 213.25284567230943 H 0.0 **** 0.06
36836 C 154.49689151584704 188.26530406739627 184.10317787362848 C 0.0 **** -0.24
36837 H 154.77091574559597 189.06660467720116 183.41770491794267 H 0.0 **** 0.06
36838 H 153.51372652977813 188.47151729443894 184.5285140757064 H 0.0 **** 0.06
36839 H 155.23369510698933 188.2042980554327 184.90433945366306 H 0.0 **** 0.06
36840 H 154.46872736312542 187.31867520328524 183.56346988575177 H 0.0 **** 0.06
36841 C 85.051509951647 99.3566787075149 201.87573705559137 C 0.0 **** -0.24
36842 H 84.43894754079906 100.25798400159226 201.8531495324055 H 0.0 **** 0.06
36843 H 85.5166544578176 99.25912448176751 202.8569209866053 H 0.0 **** 0.06
36844 H 85.82532633485096 99.42457202985497 201.1111771586595 H 0.0 **** 0.06
36845 H 84.42404136010009 98.48681001883432 201.68253829484425 H 0.0 **** 0.06
36846 C 139.60678162046167 113.80770309562548 10.108520415532183 C 0.0 **** -0.24
36847 H 139.22829900500113 112.8338204970078 10.420414220116584 H 0.0 **** 0.06
36848 H 139.05706147458721 114.14765312955747 9.230904970125607 H 0.0 **** 0.06
36849 H 140.66561082604625 113.72574245515945 9.86532443597946 H 0.0 **** 0.06
36850 H 139.475489734713 114.52418799546108 10.92047238171827 H 0.0 **** 0.06
36851 C 158.5737295676626 185.8192461769603 174.90222462410873 C 0.0 **** -0.24
36852 H 158.53690289991027 185.8281934338924 175.9907708337011 H 0.0 **** 0.06
36853 H 157.8357030196588 185.11332616119805 174.51990028447102 H 0.0 **** 0.06
36854 H 159.56867712653246 185.51880187111257 174.5753703866946 H 0.0 **** 0.06
36855 H 158.35316035799252 186.81753900055406 174.52294396871264 H 0.0 **** 0.06
36856 C 169.77932627178805 37.02174709692038 153.78254336491233 C 0.0 **** -0.24
36857 H 170.0935347821716 36.9406318340057 152.74185586774388 H 0.0 **** 0.06
36858 H 169.68540457118246 36.02381783809044 154.21114463642726 H 0.0 **** 0.06
36859 H 168.8177148675856 37.53149624078905 153.83298577812673 H 0.0 **** 0.06
36860 H 170.5221926967174 37.589848973712165 154.34190716279102 H 0.0 **** 0.06
36861 C 185.78930140475592 26.956421259447083 133.1733634176489 C 0.0 **** -0.24
36862 H 185.80100225093813 26.089400884019668 133.8333883301649 H 0.0 **** 0.06
36863 H 186.76010204712625 27.45020368573894 133.20415546231982 H 0.0 **** 0.06
36864 H 185.0168786155167 27.651104229413093 133.50106406954433 H 0.0 **** 0.06
36865 H 185.57832052698177 26.632847136549884 132.15403766247317 H 0.0 **** 0.06
36866 C 72.60426124910093 159.71206880286493 60.182228806952 C 0.0 **** -0.24
36867 H 72.81530879092186 158.6496829258648 60.05573240854987 H 0.0 **** 0.06
36868 H 71.58859389212266 159.83747396108507 60.557978071168975 H 0.0 **** 0.06
36869 H 72.70219371347851 160.21827751422114 59.22217875617534 H 0.0 **** 0.06
36870 H 73.31059540396784 160.13969887338902 60.89296553817354 H 0.0 **** 0.06
36871 C 16.91371803173695 155.9046330101001 168.99415199101628 C 0.0 **** -0.24
36872 H 15.933610991383233 155.4367014256598 169.09055931077108 H 0.0 **** 0.06
36873 H 17.20302826074476 156.34095971088618 169.95079443081136 H 0.0 **** 0.06
36874 H 16.869484229202328 156.6861613466515 168.2365459304923 H 0.0 **** 0.06
36875 H 17.646273907260195 155.15321701586822 168.7006183165489 H 0.0 **** 0.06
36876 C 155.3247982858207 57.438170411999806 203.4782094380258 C 0.0 **** -0.24
36877 H 155.36332682203465 57.490776310972706 204.566002294458 H 0.0 **** 0.06
36878 H 155.6655289474284 56.45655092026453 203.149309875769 H 0.0 **** 0.06
36879 H 155.97105414177423 58.20736093899137 203.05523374096896 H 0.0 **** 0.06
36880 H 154.30041255449925 57.59882275524188 203.14209958178878 H 0.0 **** 0.06
36881 C 6.465280556127837 137.9992361064498 158.00747509806467 C 0.0 **** -0.24
36882 H 5.967362223979393 137.817931454681 158.96060264136725 H 0.0 **** 0.06
36883 H 7.5050148700894965 137.6770798810286 158.0736799189787 H 0.0 **** 0.06
36884 H 6.42917419009251 139.06405831783593 157.7766523724332 H 0.0 **** 0.06
36885 H 5.959542247003554 137.4395050242229 157.22079345206765 H 0.0 **** 0.06
36886 C 81.6672544780145 119.96514272300523 22.94686093497181 C 0.0 **** -0.24
36887 H 82.56663853313275 119.8594624981731 22.339254839293034 H 0.0 **** 0.06
36888 H 81.43758380511649 119.01161126024321 23.423552960182988 H 0.0 **** 0.06
36889 H 80.83342728262132 120.26542021038172 22.31268764074248 H 0.0 **** 0.06
36890 H 81.83403126061746 120.72314158906927 23.712132363319 H 0.0 **** 0.06
36891 C 74.89895827766406 97.12100699515842 76.13518875056879 C 0.0 **** -0.24
36892 H 74.09332533528078 97.3427677246297 75.43464118423255 H 0.0 **** 0.06
36893 H 74.83535967421841 96.07729411808175 76.44357939735848 H 0.0 **** 0.06
36894 H 74.80715764881484 97.76526531112874 77.00987670150768 H 0.0 **** 0.06
36895 H 75.85988298966157 97.3003045402018 75.65146749950291 H 0.0 **** 0.06
36896 C 59.138782667779026 125.65396957694394 185.46859461272695 C 0.0 **** -0.24
36897 H 59.56782130045639 125.71239950997689 184.46815674074693 H 0.0 **** 0.06
36898 H 59.48362916799971 126.50039456080664 186.0618565795493 H 0.0 **** 0.06
36899 H 59.45271506307233 124.7241536621368 185.94349140308927 H 0.0 **** 0.06
36900 H 58.05141920770467 125.67767805440992 185.39881821873556 H 0.0 **** 0.06
36901 C 54.77327026413242 52.397482468683364 118.83658700477578 C 0.0 **** -0.24
36902 H 55.49486345467986 53.107350151885186 118.43105612720784 H 0.0 **** 0.06
36903 H 54.68543620580117 52.543525727825624 119.91292834098068 H 0.0 **** 0.06
36904 H 55.11128757154319 51.381630054621496 118.63378341385005 H 0.0 **** 0.06
36905 H 53.80340400211935 52.557797868306864 118.36652793459034 H 0.0 **** 0.06
36906 C 164.74256252581227 170.05985225037352 122.5698326981523 C 0.0 **** -0.24
36907 H 165.05241995588426 169.46351505017446 123.42725816512369 H 0.0 **** 0.06
36908 H 164.14093030228605 170.9020543721668 122.91219711906454 H 0.0 **** 0.06
36909 H 164.15329194109236 169.4426971887508 121.89211156590484 H 0.0 **** 0.06
36910 H 165.6247437624376 170.43219438859546 122.04937738917623 H 0.0 **** 0.06
36911 C 64.99172089315368 107.22368266110631 76.94361497517882 C 0.0 **** -0.24
36912 H 65.0315175801658 107.51491326555414 75.8936058755891 H 0.0 **** 0.06
36913 H 64.62628244626222 106.20008176017181 77.02331482609206 H 0.0 **** 0.06
36914 H 64.3189549282394 107.89317064172299 77.48004292473992 H 0.0 **** 0.06
36915 H 65.98955874024583 107.2891428857382 77.37607157139176 H 0.0 **** 0.06
36916 C 67.75618495092422 133.9212373187193 26.91883559089888 C 0.0 **** -0.24
36917 H 68.50333010679569 134.12563335110025 26.15226041073268 H 0.0 **** 0.06
36918 H 67.46670227180996 134.85577623632452 27.401431653718987 H 0.0 **** 0.06
36919 H 68.17395340047041 133.24248769849862 27.662589997510565 H 0.0 **** 0.06
36920 H 66.88023717193745 133.46314863371833 26.460216608568658 H 0.0 **** 0.06
36921 C 194.51822665658182 191.94485092803382 110.61931022286508 C 0.0 **** -0.24
36922 H 195.4695278186088 192.2619440851294 110.19171208218772 H 0.0 **** 0.06
36923 H 193.94521007072365 191.4025697001916 109.86599937780271 H 0.0 **** 0.06
36924 H 193.95605831658656 192.8201904744913 110.94418183958344 H 0.0 **** 0.06
36925 H 194.70321004205985 191.29375210565908 111.47364657711113 H 0.0 **** 0.06
36926 C 1.1186940181773437 51.63485876305282 76.97279550449127 C 0.0 **** -0.24
36927 H 1.3543602361927043 51.975821328002326 77.98137079427869 H 0.0 **** 0.06
36928 H 0.28931081248548196 52.22127644337428 76.57547703679307 H 0.0 **** 0.06
36929 H 0.8387825643043456 50.58178172178589 77.00164789925611 H 0.0 **** 0.06
36930 H 1.9928927306801185 51.760630558853165 76.33350432371111 H 0.0 **** 0.06
36931 C 194.79142925249366 56.30850287300137 161.15650602365827 C 0.0 **** -0.24
36932 H 194.93532450886852 56.55772643862673 160.10493390772973 H 0.0 **** 0.06
36933 H 194.79023488958498 55.22468195443565 161.27580371925177 H 0.0 **** 0.06
36934 H 193.83860081248653 56.71287391047832 161.49876787087337 H 0.0 **** 0.06
36935 H 195.60095944113672 56.73804234376786 161.74543626512727 H 0.0 **** 0.06
36936 C 164.889268467646 147.96897296734676 216.15221226523897 C 0.0 **** -0.24
36937 H 164.03966746854022 148.64518713222577 216.24888536284493 H 0.0 **** 0.06
36938 H 164.56544141457633 147.04235659409488 215.67944989970843 H 0.0 **** 0.06
36939 H 165.29309590188933 147.75042138926324 217.14106197943576 H 0.0 **** 0.06
36940 H 165.6601067650849 148.44072888447255 215.54160041163038 H 0.0 **** 0.06
36941 C 160.33632228127595 152.80497817540152 36.40642852178212 C 0.0 **** -0.24
36942 H 160.33079319815096 151.8630571566066 36.954213467624555 H 0.0 **** 0.06
36943 H 160.41333227099847 153.63442946826774 37.11029723970461 H 0.0 **** 0.06
36944 H 159.41244931766227 152.89844156045143 35.83505693493066 H 0.0 **** 0.06
36945 H 161.18783538336243 152.82445624210624 35.72621665829712 H 0.0 **** 0.06
36946 C 138.56842873033588 46.96292297235016 146.2017067702293 C 0.0 **** -0.24
36947 H 138.3309412907148 47.947615873091365 145.79938011157589 H 0.0 **** 0.06
36948 H 139.6440730334728 46.886553875574805 146.36196355795278 H 0.0 **** 0.06
36949 H 138.251695955581 46.19591353226434 145.49403804322833 H 0.0 **** 0.06
36950 H 138.04802803755098 46.82151100053551 147.14845483261365 H 0.0 **** 0.06
36951 C 85.02438429898643 108.00724928627919 94.94943242601245 C 0.0 **** -0.24
36952 H 86.02207520139183 107.88410352557203 95.36838598806953 H 0.0 **** 0.06
36953 H 84.34274566382385 107.2970201527513 95.41823675406802 H 0.0 **** 0.06
36954 H 85.05604817876673 107.82481068224332 93.874833567284 H 0.0 **** 0.06
36955 H 84.674328289269 109.02307085691344 95.1343958616864 H 0.0 **** 0.06
36956 C 207.11781131390075 28.240252190600984 29.453718196755773 C 0.0 **** -0.24
36957 H 207.676243524659 28.76197276478817 30.230635333434392 H 0.0 **** 0.06
36958 H 207.0923025921061 27.173965605994738 29.678303059283166 H 0.0 **** 0.06
36959 H 207.60207614111278 28.39759091699102 28.490413870979083 H 0.0 **** 0.06
36960 H 206.09947423864324 28.62822993075028 29.415862871221933 H 0.0 **** 0.06
36961 C 104.15507156788065 71.654872412832 167.32530304247246 C 0.0 **** -0.24
36962 H 103.44097739440518 70.83180886959683 167.3242835478867 H 0.0 **** 0.06
36963 H 104.14165131565873 72.1456094951112 168.29953308916726 H 0.0 **** 0.06
36964 H 103.88187729879608 72.37346500146147 166.5531342104121 H 0.0 **** 0.06
36965 H 105.15412230851747 71.26904748937947 167.12600964407093 H 0.0 **** 0.06
36966 C 78.0649070237705 211.18321349267 8.5009904683873 C 0.0 **** -0.24
36967 H 78.18360798361198 212.121770403957 7.960510009863015 H 0.0 **** 0.06
36968 H 78.29041167214785 211.33967014471366 9.555886722452044 H 0.0 **** 0.06
36969 H 78.74673247195665 210.43851723106246 8.089754914486775 H 0.0 **** 0.06
36970 H 77.03797528728137 210.83172345755668 8.396132860798247 H 0.0 **** 0.06
36971 C 108.06578563949749 19.082269620676925 7.823324613836945 C 0.0 **** -0.24
36972 H 107.50025778147229 18.19805949011655 8.116110902981717 H 0.0 **** 0.06
36973 H 107.66706187809639 19.956060075849223 8.34044333299829 H 0.0 **** 0.06
36974 H 107.9810906750793 19.227253452552418 6.746823071662078 H 0.0 **** 0.06
36975 H 109.11375944704945 18.94873220542371 8.090920927465916 H 0.0 **** 0.06
36976 C 102.46346906911207 58.65360711652198 14.898211805142665 C 0.0 **** -0.24
36977 H 102.12511675391157 58.089546094470435 14.028889071411953 H 0.0 **** 0.06
36978 H 102.7117111267347 59.6714925518246 14.596789732272697 H 0.0 **** 0.06
36979 H 103.34594762286575 58.17372741824673 15.320863206381887 H 0.0 **** 0.06
36980 H 101.66960055572504 58.67820982669582 15.645024790137143 H 0.0 **** 0.06
36981 C 122.9771595474521 118.83736974888615 114.64232774282955 C 0.0 **** -0.24
36982 H 123.78771765134194 119.33373541087946 115.17650359127303 H 0.0 **** 0.06
36983 H 122.39625508607524 118.23655282041705 115.34227143064267 H 0.0 **** 0.06
36984 H 123.39362692079912 118.19421491572035 113.86773500663544 H 0.0 **** 0.06
36985 H 122.33242863090062 119.58728397167346 114.18366136536507 H 0.0 **** 0.06
36986 C 64.0898006471072 92.7907650907989 66.56438449201511 C 0.0 **** -0.24
36987 H 63.089121857045825 92.90951535285468 66.14986614840319 H 0.0 **** 0.06
36988 H 64.60005351201973 91.97271826452392 66.05500589394791 H 0.0 **** 0.06
36989 H 64.01693780891625 92.56652677850754 67.62884554455604 H 0.0 **** 0.06
36990 H 64.65280241734676 93.71361869354105 66.4253867629264 H 0.0 **** 0.06
36991 C 4.725712523806948 200.61540211529805 23.253098551361234 C 0.0 **** -0.24
36992 H 5.1151280387832045 199.86551673825832 23.941413601819022 H 0.0 **** 0.06
36993 H 4.0274361439367325 200.14492434678723 22.561525064130933 H 0.0 **** 0.06
36994 H 5.549596155281705 201.0577963740884 22.69343507054637 H 0.0 **** 0.06
36995 H 4.210282545050511 201.3924697276151 23.81744241601814 H 0.0 **** 0.06
36996 C 117.40164317315593 124.35687349940217 147.008080985935 C 0.0 **** -0.24
36997 H 116.9020658762763 125.31781311387827 147.13304788895778 H 0.0 **** 0.06
36998 H 116.86936147560333 123.59449227942018 147.5780539930402 H 0.0 **** 0.06
36999 H 118.4269475189213 124.43106013359686 147.36772170176522 H 0.0 **** 0.06
37000 H 117.40425834796197 124.08464922306355 145.95240051870684 H 0.0 **** 0.06
37001 C 18.422248063886684 94.1060086494059 177.07603757779566 C 0.0 **** -0.24
37002 H 17.739188162396005 93.78580578753689 176.28849300404525 H 0.0 **** 0.06
37003 H 19.31347069916123 93.47749772253415 177.06082606505177 H 0.0 **** 0.06
37004 H 17.92894904851164 94.01456196545097 178.04311549734808 H 0.0 **** 0.06
37005 H 18.707362043810974 95.14511543845704 176.90950455611934 H 0.0 **** 0.06
37006 C 39.728157625307986 45.10587261392797 157.8210018833526 C 0.0 **** -0.24
37007 H 38.67619695210158 45.250961203335635 157.57627719977262 H 0.0 **** 0.06
37008 H 40.34349984212493 45.41110412400107 156.9739500321807 H 0.0 **** 0.06
37009 H 39.908742301765926 44.05316102989133 158.040012484868 H 0.0 **** 0.06
37010 H 39.984582068415406 45.70775542006696 158.69300058422496 H 0.0 **** 0.06
37011 C 148.11423479825584 6.833073931441334 212.31263219387478 C 0.0 **** -0.24
37012 H 148.73797694405403 7.670974785873753 212.0005408007595 H 0.0 **** 0.06
37013 H 148.7023187184946 5.915919244323234 212.29327483761688 H 0.0 **** 0.06
37014 H 147.2690665632237 6.737510411352986 211.63037973439168 H 0.0 **** 0.06
37015 H 147.74770615901633 7.008779249191079 213.3234707151424 H 0.0 **** 0.06
37016 C 35.682058141845914 42.1121635547874 138.43094135701313 C 0.0 **** -0.24
37017 H 35.024822277247154 41.893175482599815 139.27259056085757 H 0.0 **** 0.06
37018 H 35.13377573982211 42.68466503047165 137.6821085172466 H 0.0 **** 0.06
37019 H 36.03142859830774 41.17834662606458 137.99024149585688 H 0.0 **** 0.06
37020 H 36.53608044304124 42.69260263941629 138.77814373733872 H 0.0 **** 0.06
37021 C 200.69244815419412 26.736056406678173 2.0771035630555374 C 0.0 **** -0.24
37022 H 199.70210993348292 26.968056284064048 2.4676805540696165 H 0.0 **** 0.06
37023 H 200.60182086645304 26.029392721742184 1.2519743166710313 H 0.0 **** 0.06
37024 H 201.30059608505482 26.29520261628771 2.868352072114817 H 0.0 **** 0.06
37025 H 201.16619294461177 27.651329476368034 1.7224273507162238 H 0.0 **** 0.06
37026 C 32.724643102304654 183.97638951478385 34.807599499704395 C 0.0 **** -0.24
37027 H 32.98789898864008 183.88159617121278 33.754347066059154 H 0.0 **** 0.06
37028 H 33.399199621507236 183.36409707011805 35.407395821862764 H 0.0 **** 0.06
37029 H 31.69822939047961 183.6394577568449 34.956854449549866 H 0.0 **** 0.06
37030 H 32.8119904156065 185.01987565479942 35.11218163770184 H 0.0 **** 0.06
37031 C 21.542494116285837 121.73668372492183 157.183118417569 C 0.0 **** -0.24
37032 H 22.4920924395892 121.20183025307223 157.2004656004092 H 0.0 **** 0.06
37033 H 21.719316719086464 122.78260862391083 156.93445601234095 H 0.0 **** 0.06
37034 H 21.071115394088537 121.67122412561191 158.1642255951536 H 0.0 **** 0.06
37035 H 20.887930587979668 121.29053465951999 156.4345439513284 H 0.0 **** 0.06
37036 C 214.34237784889407 47.84807626419436 170.93666889272544 C 0.0 **** -0.24
37037 H 214.97900599002335 47.357808117732304 170.20079942385894 H 0.0 **** 0.06
37038 H 214.85105822402272 47.8674066930958 171.90129357260366 H 0.0 **** 0.06
37039 H 213.40552410403347 47.2989445433262 171.03039481884446 H 0.0 **** 0.06
37040 H 214.13505413350862 48.868746018901334 170.61478806098472 H 0.0 **** 0.06
37041 C 214.22427833163738 148.15465313262303 169.9827901473164 C 0.0 **** -0.24
37042 H 214.91112810248882 148.1207407654769 169.13750826023372 H 0.0 **** 0.06
37043 H 214.22257894451934 147.1884917126091 170.48909972488045 H 0.0 **** 0.06
37044 H 213.21899591587854 148.37986050259445 169.62546248696833 H 0.0 **** 0.06
37045 H 214.54400478525983 148.93041849960167 170.67925568403535 H 0.0 **** 0.06
37046 C 29.27059212722058 16.258711368117645 168.13231668326165 C 0.0 **** -0.24
37047 H 30.129632352745617 16.629689392579564 168.69098413878993 H 0.0 **** 0.06
37048 H 28.352878665249577 16.632888360398454 168.58716801465118 H 0.0 **** 0.06
37049 H 29.2680420853398 15.169513788177056 168.15029560726674 H 0.0 **** 0.06
37050 H 29.331366460526382 16.605057047326653 167.10011597397403 H 0.0 **** 0.06
37051 C 25.94625534720302 70.82844220133161 201.02856850901725 C 0.0 **** -0.24
37052 H 25.366316648901545 71.14261666476175 200.1599398922093 H 0.0 **** 0.06
37053 H 26.08762176317893 69.7487123659022 200.99869993536788 H 0.0 **** 0.06
37054 H 25.411473508858563 71.10082696312305 201.93917714364397 H 0.0 **** 0.06
37055 H 26.91681016776809 71.32381657927847 201.01531357721842 H 0.0 **** 0.06
37056 C 94.26727307729472 155.27694233231597 115.93539173905987 C 0.0 **** -0.24
37057 H 93.35702231451383 155.1460870048266 116.52183405853134 H 0.0 **** 0.06
37058 H 95.0780251052358 155.5979230212905 116.58978511556785 H 0.0 **** 0.06
37059 H 94.0983304891029 156.0324749624998 115.16848367847086 H 0.0 **** 0.06
37060 H 94.53317583136278 154.33241017613278 115.46259914314697 H 0.0 **** 0.06
37061 C 128.51504286438825 147.76904130488538 190.2794819085923 C 0.0 **** -0.24
37062 H 129.56574495023767 147.51696404547982 190.4253357066754 H 0.0 **** 0.06
37063 H 128.11401954165217 148.19814247730983 191.19741469791362 H 0.0 **** 0.06
37064 H 127.95767477037133 146.86716483540766 190.0248335402142 H 0.0 **** 0.06
37065 H 128.42383362805992 148.4928042002868 189.46956939279855 H 0.0 **** 0.06
37066 C 124.91275207679435 214.81317590235025 136.57203792744383 C 0.0 **** -0.24
37067 H 124.79413983549405 215.4425154482818 135.68967517950625 H 0.0 **** 0.06
37068 H 125.96911256544588 214.58162766710265 136.7128359755119 H 0.0 **** 0.06
37069 H 124.35332209333471 213.88776349534746 136.43603754917996 H 0.0 **** 0.06
37070 H 124.5366615048929 215.340778936746 137.44858459315725 H 0.0 **** 0.06
37071 C 133.2112627322041 148.2138536404708 203.03984582594745 C 0.0 **** -0.24
37072 H 134.28279263850317 148.1425277499511 202.84987099834336 H 0.0 **** 0.06
37073 H 132.7275513106573 148.71796996951798 202.2034397540898 H 0.0 **** 0.06
37074 H 133.04200347606678 148.7807158707609 203.95452698770262 H 0.0 **** 0.06
37075 H 132.7953820130412 147.21244826081647 203.15067735960184 H 0.0 **** 0.06
37076 C 158.20500303834615 124.08300900244028 149.40747840421716 C 0.0 **** -0.24
37077 H 158.888006887563 123.23695542823928 149.31812368866844 H 0.0 **** 0.06
37078 H 158.7495994989447 124.951531621088 149.77880212343274 H 0.0 **** 0.06
37079 H 157.4036412574431 123.83041258550956 150.10128202928263 H 0.0 **** 0.06
37080 H 157.78076089489582 124.31116703237159 148.42922860526863 H 0.0 **** 0.06
37081 C 62.653645481247125 6.974717751999094 58.73150317490172 C 0.0 **** -0.24
37082 H 63.01595492704271 6.409877002647477 59.5905217614969 H 0.0 **** 0.06
37083 H 61.89161145633048 7.682817123802664 59.05810472492969 H 0.0 **** 0.06
37084 H 62.22435177210053 6.289551243031809 58.00121221544951 H 0.0 **** 0.06
37085 H 63.48288903238927 7.517712670342149 58.278115054965085 H 0.0 **** 0.06
37086 C 137.59538137731528 105.44700477848424 92.79189135106668 C 0.0 **** -0.24
37087 H 137.3455102252987 104.78489911979499 91.96354563719348 H 0.0 **** 0.06
37088 H 137.7479125102626 106.45856585009868 92.41484016292384 H 0.0 **** 0.06
37089 H 138.50800097604906 105.09752467171735 93.2743302112404 H 0.0 **** 0.06
37090 H 136.78010179765067 105.44702947232601 93.51484939290907 H 0.0 **** 0.06
37091 C 55.54483987486326 122.24074267064083 117.38089168253366 C 0.0 **** -0.24
37092 H 56.53071928066849 122.00255326871763 117.77953279216295 H 0.0 **** 0.06
37093 H 54.879116464202724 121.3888533396298 117.52530800068318 H 0.0 **** 0.06
37094 H 55.62760038600099 122.46080506264911 116.3159060482276 H 0.0 **** 0.06
37095 H 55.14125862345095 123.10914833463801 117.90109828067436 H 0.0 **** 0.06
37096 C 201.51715391620138 185.42026200637318 120.13135108591497 C 0.0 **** -0.24
37097 H 200.43465038244574 185.5151996078343 120.0435496323618 H 0.0 **** 0.06
37098 H 201.75969224579657 184.49337251340705 120.65129066536583 H 0.0 **** 0.06
37099 H 201.9117240172041 186.26730565303143 120.69359093927407 H 0.0 **** 0.06
37100 H 201.96179941903122 185.40687295757382 119.13573255227972 H 0.0 **** 0.06
37101 C 115.6328974216354 144.33728589968115 57.27279219076327 C 0.0 **** -0.24
37102 H 115.41550687257701 143.54737488759355 57.990892502842385 H 0.0 **** 0.06
37103 H 115.41635585746054 143.98199120720307 56.26492187017644 H 0.0 **** 0.06
37104 H 116.68460978707922 144.61308980583124 57.34378111379992 H 0.0 **** 0.06
37105 H 115.01296765000863 145.20723204567196 57.491284595196475 H 0.0 **** 0.06
37106 C 156.0097078139459 102.46691220543083 130.69688816218905 C 0.0 **** -0.24
37107 H 156.73629690969722 101.67800141627929 130.50463786886627 H 0.0 **** 0.06
37108 H 155.90134877225285 102.60658109211799 131.77185096836445 H 0.0 **** 0.06
37109 H 155.04715000330094 102.18629814507052 130.267781684905 H 0.0 **** 0.06
37110 H 156.35384501668108 103.39574094056921 130.2413051144165 H 0.0 **** 0.06
37111 C 204.22709198277755 14.825259918346035 194.44762138580919 C 0.0 **** -0.24
37112 H 203.78000867258683 15.377023272793451 193.62064928657838 H 0.0 **** 0.06
37113 H 204.6107837519681 15.528904865831691 195.1870925269645 H 0.0 **** 0.06
37114 H 205.04361799617305 14.208094920859935 194.07374605911093 H 0.0 **** 0.06
37115 H 203.47191519872 14.189201137235074 194.90923636161438 H 0.0 **** 0.06
37116 C 87.11693222661637 149.56358464516876 52.36582768328404 C 0.0 **** -0.24
37117 H 86.09469792398153 149.8523368917226 52.12154852786291 H 0.0 **** 0.06
37118 H 87.12065853661818 148.5528239588836 52.776239817615476 H 0.0 **** 0.06
37119 H 87.52446968610496 150.25608871344036 53.10128974548854 H 0.0 **** 0.06
37120 H 87.72792537895776 149.59173097981352 51.46383861389741 H 0.0 **** 0.06
37121 C 46.70281932228082 23.638660737432474 101.11173759581165 C 0.0 **** -0.24
37122 H 47.236207575756666 23.691671051884754 102.06070651526282 H 0.0 **** 0.06
37123 H 47.26553392194751 24.17639545662928 100.34858768296617 H 0.0 **** 0.06
37124 H 45.71748437180456 24.09252914897678 101.22409711175702 H 0.0 **** 0.06
37125 H 46.591448561024336 22.596175561725744 100.81532178880879 H 0.0 **** 0.06
37126 C 80.87444857947516 35.36390458806373 115.88917451224705 C 0.0 **** -0.24
37127 H 80.87465652182475 35.50303518404213 116.97048935034996 H 0.0 **** 0.06
37128 H 80.28003750037 34.48541200905247 115.63719157189286 H 0.0 **** 0.06
37129 H 81.89792015135929 35.22250825790516 115.54056560316388 H 0.0 **** 0.06
37130 H 80.4450128598874 36.242946997232664 115.4098755228934 H 0.0 **** 0.06
37131 C 9.886265283508791 12.411543616051631 14.848073183209848 C 0.0 **** -0.24
37132 H 10.95984288852101 12.224153207494453 14.860201367697314 H 0.0 **** 0.06
37133 H 9.398490097915754 11.68755306296174 14.195454471978934 H 0.0 **** 0.06
37134 H 9.69837578341729 13.419554105694033 14.478418582271331 H 0.0 **** 0.06
37135 H 9.489718070883868 12.315896836650609 15.858629530114499 H 0.0 **** 0.06
37136 C 67.84360303932209 26.021031775035453 47.8448088857549 C 0.0 **** -0.24
37137 H 67.13682681366907 25.714991895514288 47.07318390945119 H 0.0 **** 0.06
37138 H 68.06586869316186 25.171966095158496 48.490944770856515 H 0.0 **** 0.06
37139 H 67.407921041783 26.82610573584094 48.437263327830294 H 0.0 **** 0.06
37140 H 68.76259810541097 26.37159735873692 47.37514520236357 H 0.0 **** 0.06
37141 C 39.68240622327829 53.60538022183222 92.91165547811573 C 0.0 **** -0.24
37142 H 39.71879694329073 53.96071627734909 93.9411267637214 H 0.0 **** 0.06
37143 H 38.85264882235924 54.08503052322645 92.39154356978293 H 0.0 **** 0.06
37144 H 39.540201976056665 52.52438694360194 92.90560295275617 H 0.0 **** 0.06
37145 H 40.61699604652091 53.85157800936331 92.40838056742155 H 0.0 **** 0.06
37146 C 94.77564250513304 139.98811728129112 161.1559546125968 C 0.0 **** -0.24
37147 H 95.41987327077074 139.17316599665384 160.82503729541625 H 0.0 **** 0.06
37148 H 94.17163955290171 140.33620970954365 160.31740691001426 H 0.0 **** 0.06
37149 H 95.38846695472004 140.8084882872276 161.52800128206485 H 0.0 **** 0.06
37150 H 94.12093495712769 139.63332338771437 161.9521012453614 H 0.0 **** 0.06
37151 C 56.64283107587846 74.68927818559506 196.86048893677852 C 0.0 **** -0.24
37152 H 57.39989153162399 74.09352547348571 197.37198022296593 H 0.0 **** 0.06
37153 H 56.13815459189756 74.07353537505413 196.11694636869132 H 0.0 **** 0.06
37154 H 57.11963717043865 75.5370615299256 196.3677268244349 H 0.0 **** 0.06
37155 H 55.916199955032056 75.05321507399806 197.58685199419733 H 0.0 **** 0.06
37156 C 135.92182359907645 166.38625093903602 200.03164588592531 C 0.0 **** -0.24
37157 H 135.90204432678223 165.85143613770984 200.98208108790988 H 0.0 **** 0.06
37158 H 136.1656383488289 165.6908401806768 199.2286693129683 H 0.0 **** 0.06
37159 H 136.6756192126902 167.17245443568882 200.0744053556331 H 0.0 **** 0.06
37160 H 134.9432601604393 166.83002385930467 199.8446529664661 H 0.0 **** 0.06
37161 C 140.77638796378517 25.684427116386814 92.67125134859008 C 0.0 **** -0.24
37162 H 141.21948469766818 25.067742793201774 93.45341685022889 H 0.0 **** 0.06
37163 H 140.7095253367483 26.716369438073627 93.01751510692533 H 0.0 **** 0.06
37164 H 139.77838820799315 25.314176979896445 92.43796729322146 H 0.0 **** 0.06
37165 H 141.39880467319944 25.640493315175206 91.77820914549629 H 0.0 **** 0.06
37166 C 92.67128982372907 15.216767781494866 135.57198954631752 C 0.0 **** -0.24
37167 H 91.71247002700608 14.701697459352715 135.62479376748894 H 0.0 **** 0.06
37168 H 92.73518602440089 15.770160157498992 134.63485279109693 H 0.0 **** 0.06
37169 H 93.47950254685776 14.486041354678548 135.61829549091908 H 0.0 **** 0.06
37170 H 92.75855848648928 15.907873247666885 136.40997435579686 H 0.0 **** 0.06
37171 C 113.68164065202195 21.49632486039326 125.07129756815351 C 0.0 **** -0.24
37172 H 113.33777735092322 22.03377921206686 125.95491455694605 H 0.0 **** 0.06
37173 H 114.03060868001613 20.5054577201077 125.36209262200452 H 0.0 **** 0.06
37174 H 114.49858474304067 22.048599262076095 124.60652506530272 H 0.0 **** 0.06
37175 H 112.8594297548298 21.399337885969317 124.36322632742133 H 0.0 **** 0.06
37176 C 169.65925802348744 69.05479156226764 125.11515350277868 C 0.0 **** -0.24
37177 H 168.63643955725843 68.71468019110867 124.95183545768869 H 0.0 **** 0.06
37178 H 170.16058620350145 69.17397803206552 124.15437372208181 H 0.0 **** 0.06
37179 H 170.19416105153647 68.3184079066846 125.71520017156719 H 0.0 **** 0.06
37180 H 169.6441942796323 70.01036602519768 125.63972158527504 H 0.0 **** 0.06
37181 C 85.94854458564828 170.82477507030666 114.00906692446866 C 0.0 **** -0.24
37182 H 85.77478314334479 171.23515689270744 115.00325394873813 H 0.0 **** 0.06
37183 H 86.03042968344079 171.63943156342734 113.28967568035658 H 0.0 **** 0.06
37184 H 85.11605390401525 170.17758733243366 113.73306613998356 H 0.0 **** 0.06
37185 H 86.87223628642278 170.2473424180522 114.01087962194192 H 0.0 **** 0.06
37186 C 174.92712081142793 161.18993605291672 26.455375978323104 C 0.0 **** -0.24
37187 H 175.18542717755463 160.48005548435282 27.24162946726659 H 0.0 **** 0.06
37188 H 174.6955569439647 160.6474993843476 25.538090966810728 H 0.0 **** 0.06
37189 H 175.77036638339217 161.85908587532418 26.279067760090356 H 0.0 **** 0.06
37190 H 174.05936211512585 161.77293086301256 26.762729228461694 H 0.0 **** 0.06
37191 C 136.43404835642093 158.19565434430496 159.18452175860673 C 0.0 **** -0.24
37192 H 136.20089680798446 159.05750812673446 158.55876337041863 H 0.0 **** 0.06
37193 H 135.57762610137382 157.52231666911337 159.20815269175623 H 0.0 **** 0.06
37194 H 136.66157725678562 158.53127913442202 160.19658091999912 H 0.0 **** 0.06
37195 H 137.297451875844 157.67200674953477 158.77288391654866 H 0.0 **** 0.06
37196 C 107.21988708505016 166.2385370818036 87.98583548614216 C 0.0 **** -0.24
37197 H 107.84490730592033 165.42700473846728 88.35601933890236 H 0.0 **** 0.06
37198 H 106.35461677122551 166.3568886920049 88.63841906307256 H 0.0 **** 0.06
37199 H 106.88395706231763 166.00740148183587 86.9747684764208 H 0.0 **** 0.06
37200 H 107.79635364576451 167.16446812826626 87.97469247164373 H 0.0 **** 0.06
37201 C 212.49794885273536 121.58576937119011 190.40798849829307 C 0.0 **** -0.24
37202 H 212.66332368864224 120.59947846207882 190.84099142503732 H 0.0 **** 0.06
37203 H 213.3864708311224 122.19982450275097 190.55127181346123 H 0.0 **** 0.06
37204 H 211.64645575813213 122.05812476909608 190.8981946086878 H 0.0 **** 0.06
37205 H 212.29344106870536 121.48496979123888 189.34255002923274 H 0.0 **** 0.06
37206 C 90.83700258493248 73.587440248468 171.44260672156804 C 0.0 **** -0.24
37207 H 89.76179127216697 73.76467323604197 171.4242428160085 H 0.0 **** 0.06
37208 H 91.02982444313817 72.51624785698749 171.39032177507508 H 0.0 **** 0.06
37209 H 91.25620241394883 73.98879684006909 172.36550137101557 H 0.0 **** 0.06
37210 H 91.30014766364557 74.0825239598542 170.58816016481126 H 0.0 **** 0.06
37211 C 186.1029104589313 216.9458097219352 37.782996738886254 C 0.0 **** -0.24
37212 H 186.29083260717513 215.97940495275896 38.25200126326013 H 0.0 **** 0.06
37213 H 185.97566258132235 217.7047973701005 38.554949370399186 H 0.0 **** 0.06
37214 H 185.19862563399386 216.88516057326962 37.178206893417155 H 0.0 **** 0.06
37215 H 186.94848503238276 217.2109295198577 37.14750851117407 H 0.0 **** 0.06
37216 C 129.24995435317538 115.06955958872042 129.6451132771728 C 0.0 **** -0.24
37217 H 130.26668825950452 115.08386916328921 130.0379498072325 H 0.0 **** 0.06
37218 H 128.71230137146637 115.95007047082349 129.9987274972376 H 0.0 **** 0.06
37219 H 128.73999000177497 114.16954837089894 129.9890250523518 H 0.0 **** 0.06
37220 H 129.281313014491 115.07525705215285 128.5554700723 H 0.0 **** 0.06
37221 C 141.79880980113688 46.785936733578865 119.35538814485896 C 0.0 **** -0.24
37222 H 142.58861480456187 46.570541546295956 120.07428458233825 H 0.0 **** 0.06
37223 H 141.7424552307442 47.86206116783727 119.18874026425412 H 0.0 **** 0.06
37224 H 140.8458319185766 46.4284994837776 119.74458846943064 H 0.0 **** 0.06
37225 H 142.0188596146544 46.28348950147384 118.4138229672868 H 0.0 **** 0.06
37226 C 163.2794370950556 140.97846603456804 43.47959423074572 C 0.0 **** -0.24
37227 H 162.815223573457 141.87982373396363 43.879755748387254 H 0.0 **** 0.06
37228 H 162.71508001815283 140.10472305644362 43.804665647551005 H 0.0 **** 0.06
37229 H 164.30496160629576 140.90618012491484 43.84394486881415 H 0.0 **** 0.06
37230 H 163.28306162509125 141.0254973429199 42.39145819865391 H 0.0 **** 0.06
37231 C 181.38337610244872 88.91388561512787 99.10246258294212 C 0.0 **** -0.24
37232 H 180.8937244424365 88.39619101042064 98.27743913459751 H 0.0 **** 0.06
37233 H 180.9217572673603 88.61473545237192 100.04406195971761 H 0.0 **** 0.06
37234 H 181.27398356146375 89.9908877059857 98.9704818057573 H 0.0 **** 0.06
37235 H 182.44144234414193 88.65477018352874 99.11678517807051 H 0.0 **** 0.06
37236 C 119.78080900408129 86.11015711869544 94.08736720106539 C 0.0 **** -0.24
37237 H 120.62605896307626 85.48300059466061 93.80254383245081 H 0.0 **** 0.06
37238 H 119.69187463729018 86.12787603707312 95.1734697977768 H 0.0 **** 0.06
37239 H 118.86633679605278 85.70630341285096 93.65295621923853 H 0.0 **** 0.06
37240 H 119.94120018506466 87.1231732931787 93.71851623678403 H 0.0 **** 0.06
37241 C 137.44930024307104 184.00167768122074 146.11008821800402 C 0.0 **** -0.24
37242 H 137.4572813193202 185.0638665499213 146.3569935968414 H 0.0 **** 0.06
37243 H 138.377423557077 183.74014725296348 145.60170146703314 H 0.0 **** 0.06
37244 H 136.6035619947781 183.78774330626544 145.45667561227418 H 0.0 **** 0.06
37245 H 137.35823000693716 183.41700045877778 147.02554323926176 H 0.0 **** 0.06
37246 C 40.132992986975594 68.82056392511748 92.8408821233707 C 0.0 **** -0.24
37247 H 39.76404200602285 67.79566586518922 92.80565043819246 H 0.0 **** 0.06
37248 H 39.305021414252934 69.51102296305612 92.68035945437344 H 0.0 **** 0.06
37249 H 40.88216415647126 68.96345027932358 92.0611384399229 H 0.0 **** 0.06
37250 H 40.583083977552775 69.01086084243559 93.81498392132431 H 0.0 **** 0.06
37251 C 66.98329796584119 116.1815033085878 194.73130881688797 C 0.0 **** -0.24
37252 H 66.28350414283864 115.7806935305738 195.4648463206795 H 0.0 **** 0.06
37253 H 67.4309303691511 115.36037533337465 194.1701535437819 H 0.0 **** 0.06
37254 H 67.76562034262719 116.74115483021991 195.24304604731702 H 0.0 **** 0.06
37255 H 66.45161847206947 116.84261532773819 194.0460424659637 H 0.0 **** 0.06
37256 C 34.61502751627238 60.4094275170531 209.96157622864246 C 0.0 **** -0.24
37257 H 35.12149909678544 59.450106751421885 209.86226198396213 H 0.0 **** 0.06
37258 H 35.34632313660565 61.215331243928716 209.89729527892325 H 0.0 **** 0.06
37259 H 34.108353554005845 60.45497194880994 210.9267251159601 H 0.0 **** 0.06
37260 H 33.88264784552507 60.51863604365735 209.1616226959598 H 0.0 **** 0.06
37261 C 209.26709341070625 101.69288579411982 14.857136511953911 C 0.0 **** -0.24
37262 H 208.21636440348217 101.95155442255303 14.728823539562995 H 0.0 **** 0.06
37263 H 209.48916315644328 101.59488224271077 15.919991853339866 H 0.0 **** 0.06
37264 H 209.8890684586164 102.47820835626307 14.427349758792047 H 0.0 **** 0.06
37265 H 209.47305265442304 100.7486878931423 14.35350843355161 H 0.0 **** 0.06
37266 C 76.72344738135496 5.988549411421474 24.195733883837974 C 0.0 **** -0.24
37267 H 77.11170546689618 4.973206275563086 24.116745854409047 H 0.0 **** 0.06
37268 H 75.94880979867065 6.140172883723835 23.444361095853353 H 0.0 **** 0.06
37269 H 77.5334083675778 6.700347398478584 24.03351188025721 H 0.0 **** 0.06
37270 H 76.30131285621746 6.1397602725752165 25.189500387513675 H 0.0 **** 0.06
37271 C 192.96931933038468 13.640678218736184 7.4287633547396865 C 0.0 **** -0.24
37272 H 192.19362225162533 12.965312930868436 7.067267969707586 H 0.0 **** 0.06
37273 H 192.56512268303217 14.261716817902311 8.229716728812747 H 0.0 **** 0.06
37274 H 193.30717978456877 14.277083316590193 6.610554939688484 H 0.0 **** 0.06
37275 H 193.80908251672304 13.058788254980527 7.808414503483391 H 0.0 **** 0.06
37276 C 143.94676068220338 56.44038249999812 55.27412349141463 C 0.0 **** -0.24
37277 H 144.0079480768486 55.75554238185532 54.428847656328514 H 0.0 **** 0.06
37278 H 143.64484039643315 57.42663407439068 54.92206368898985 H 0.0 **** 0.06
37279 H 144.92130843694582 56.509149432931395 55.75753420733372 H 0.0 **** 0.06
37280 H 143.2123923977623 56.069393240783285 55.98906637620874 H 0.0 **** 0.06
37281 C 18.658551521590795 78.33591425920507 177.38966909129476 C 0.0 **** -0.24
37282 H 18.81309073021609 77.35224091873566 176.94726823929312 H 0.0 **** 0.06
37283 H 18.251427335527836 78.22218587310395 178.3946889413169 H 0.0 **** 0.06
37284 H 17.958347141813874 78.90403140175594 176.7762027945314 H 0.0 **** 0.06
37285 H 19.6097028852532 78.86471582134466 177.44022704969723 H 0.0 **** 0.06
37286 C 37.710906341091714 78.5062281400756 198.5673624525155 C 0.0 **** -0.24
37287 H 38.73098951022965 78.50572038533609 198.18127019294752 H 0.0 **** 0.06
37288 H 37.01044796248506 78.63134770702827 197.74078377226388 H 0.0 **** 0.06
37289 H 37.591204998164244 79.32692537127572 199.27410198527303 H 0.0 **** 0.06
37290 H 37.513477277991825 77.56044014392891 199.0714100284507 H 0.0 **** 0.06
37291 C 18.14052445044325 2.9214182005320026 25.33174345568328 C 0.0 **** -0.24
37292 H 18.746435837142826 3.1519496382743455 24.45476238073961 H 0.0 **** 0.06
37293 H 18.784141959148172 2.8504688065793005 26.2087929578599 H 0.0 **** 0.06
37294 H 17.626755366574116 1.9721215585522884 25.179259504884698 H 0.0 **** 0.06
37295 H 17.406216699478136 3.7120084688105806 25.482701307563858 H 0.0 **** 0.06
37296 C 73.7416163871871 48.17106414980448 164.51533120430005 C 0.0 **** -0.24
37297 H 73.83656900843283 49.256753794772294 164.4904086133729 H 0.0 **** 0.06
37298 H 74.66300612234772 47.734496351448314 164.90056184626422 H 0.0 **** 0.06
37299 H 73.55555540027405 47.79911160532586 163.5084420702475 H 0.0 **** 0.06
37300 H 72.90980522542395 47.89427780370289 165.1634975838283 H 0.0 **** 0.06
37301 C 116.08556132903028 200.58559661231507 95.2050862955196 C 0.0 **** -0.24
37302 H 115.0968031375776 200.1513359993364 95.06211402139945 H 0.0 **** 0.06
37303 H 116.84280802600826 199.89343542588486 94.83651951352357 H 0.0 **** 0.06
37304 H 116.24984015952519 200.77193368581027 96.26618576764002 H 0.0 **** 0.06
37305 H 116.15284539049561 201.52482289382834 94.65603622102702 H 0.0 **** 0.06
37306 C 169.1721921771136 84.61898391941948 22.705948797112 C 0.0 **** -0.24
37307 H 169.72688607033834 84.33936478694513 21.810164802165986 H 0.0 **** 0.06
37308 H 169.02890373149347 83.73862421962461 23.333347693741644 H 0.0 **** 0.06
37309 H 168.20124854539876 85.02392545173375 22.4195033969973 H 0.0 **** 0.06
37310 H 169.73175253914923 85.37267588252134 23.258732425106246 H 0.0 **** 0.06
37311 C 149.17945401323476 117.05275941145898 101.52142355380272 C 0.0 **** -0.24
37312 H 150.07175756100355 117.21105870967516 102.12815650106336 H 0.0 **** 0.06
37313 H 148.87008283311593 117.99877104668273 101.07708855039994 H 0.0 **** 0.06
37314 H 148.37710371313153 116.66512886658917 102.14987459250216 H 0.0 **** 0.06
37315 H 149.40145635490944 116.33440120855771 100.7318017446172 H 0.0 **** 0.06
37316 C 89.92631602821797 151.88327974537697 194.46286212343938 C 0.0 **** -0.24
37317 H 90.39431987941458 152.78613846281638 194.85488848003263 H 0.0 **** 0.06
37318 H 90.40690993449954 151.00765028732673 194.89868281846591 H 0.0 **** 0.06
37319 H 90.03907486872947 151.85856079331984 193.37847447461016 H 0.0 **** 0.06
37320 H 88.86730252222753 151.88305016631807 194.7188473965403 H 0.0 **** 0.06
37321 C 118.53186811283075 94.17810202384196 213.3625843533759 C 0.0 **** -0.24
37322 H 117.48948764265276 93.9087095302089 213.19352883066298 H 0.0 **** 0.06
37323 H 119.17495766510558 93.53910381145415 212.75654700553758 H 0.0 **** 0.06
37324 H 118.77540039105787 94.0433471719581 214.41693833255783 H 0.0 **** 0.06
37325 H 118.68738432422361 95.22030630287107 213.08308821377935 H 0.0 **** 0.06
37326 C 192.3740998093039 158.0151606973372 146.3571752385185 C 0.0 **** -0.24
37327 H 192.32958298513307 157.46527852621222 145.41635218895266 H 0.0 **** 0.06
37328 H 192.31535305437586 157.3147386402773 147.19032822497905 H 0.0 **** 0.06
37329 H 191.53837428782083 158.71309295254486 146.40836662098872 H 0.0 **** 0.06
37330 H 193.31242155426668 158.5667348079653 146.41066757998334 H 0.0 **** 0.06
37331 C 61.599288267943436 43.58485834777423 213.73915089219255 C 0.0 **** -0.24
37332 H 61.34054198191323 43.766375428791264 212.69550916147392 H 0.0 **** 0.06
37333 H 62.028951441617494 44.490305323451935 214.1678832920524 H 0.0 **** 0.06
37334 H 62.32671151517907 42.774602353040706 213.79665561963537 H 0.0 **** 0.06
37335 H 60.70247550023409 43.30882444083079 214.29368968839643 H 0.0 **** 0.06
37336 C 136.25639811647608 96.04676296933957 158.04214758747696 C 0.0 **** -0.24
37337 H 137.23796235263995 95.57397444065737 158.0187427878609 H 0.0 **** 0.06
37338 H 136.28712441008935 96.91359827299328 158.70251384452786 H 0.0 **** 0.06
37339 H 135.5193622533028 95.33455832049503 158.4108260138142 H 0.0 **** 0.06
37340 H 135.98349773561864 96.36558179668663 157.0366511638842 H 0.0 **** 0.06
37341 C 127.68588055773309 75.16618481886098 134.91234656276293 C 0.0 **** -0.24
37342 H 127.36269725547486 74.73856068170437 133.96338434925815 H 0.0 **** 0.06
37343 H 128.5117001809308 75.85569204398098 134.73675648538597 H 0.0 **** 0.06
37344 H 128.01395140280545 74.36779817673562 135.57811711658303 H 0.0 **** 0.06
37345 H 126.8544849791828 75.7029764240196 135.37046261840743 H 0.0 **** 0.06
37346 C 106.34730977753254 61.56593150899624 185.04701576787747 C 0.0 **** -0.24
37347 H 105.93558848142739 60.71357206581473 184.50556299131065 H 0.0 **** 0.06
37348 H 107.41374753405698 61.40950783978752 185.21169818035096 H 0.0 **** 0.06
37349 H 105.84161592954347 61.6650834755788 186.00645035234788 H 0.0 **** 0.06
37350 H 106.19894615220893 62.47324505763629 184.46230346330998 H 0.0 **** 0.06
37351 C 59.848882040845254 15.38312665593594 8.577211399862392 C 0.0 **** -0.24
37352 H 60.00464744026871 16.457981676965176 8.672547491180694 H 0.0 **** 0.06
37353 H 58.82767620856667 15.137210502996766 8.8685600440989 H 0.0 **** 0.06
37354 H 60.548987255257686 14.85667126700227 9.226203353200049 H 0.0 **** 0.06
37355 H 60.015388728253726 15.082367985510672 7.543691757062163 H 0.0 **** 0.06
37356 C 84.86345894121774 146.9440855797692 131.94142514004767 C 0.0 **** -0.24
37357 H 84.0852142643273 146.21037965725446 132.15113202240587 H 0.0 **** 0.06
37358 H 84.64920859760974 147.4379911258173 130.9932757578872 H 0.0 **** 0.06
37359 H 85.82912151096502 146.44246308300245 131.88059090485683 H 0.0 **** 0.06
37360 H 84.88831109087306 147.68447677689113 132.74082077296453 H 0.0 **** 0.06
37361 C 134.7973565877519 182.4827008073347 87.95388493357619 C 0.0 **** -0.24
37362 H 134.99566467414166 183.09867355841982 87.07657961915054 H 0.0 **** 0.06
37363 H 133.76334158089173 182.13966108809137 87.93069352604114 H 0.0 **** 0.06
37364 H 134.96563368127175 183.07049082181794 88.85621738555936 H 0.0 **** 0.06
37365 H 135.46606081409846 181.62136740911114 87.95199080289036 H 0.0 **** 0.06
37366 C 106.47570734465813 102.51691482061915 167.92153349354928 C 0.0 **** -0.24
37367 H 107.27446186886954 102.75398354215002 167.21871291254712 H 0.0 **** 0.06
37368 H 106.41310863623931 101.4359816001184 168.04741801417387 H 0.0 **** 0.06
37369 H 105.52863912976397 102.89314841927893 167.53533379857106 H 0.0 **** 0.06
37370 H 106.68742816800273 102.98307011513043 168.883196454787 H 0.0 **** 0.06
37371 C 127.4339192460114 86.04561900732118 90.01910993935155 C 0.0 **** -0.24
37372 H 126.61099839775592 85.7908365916599 89.35124892412296 H 0.0 **** 0.06
37373 H 127.64399101532878 85.20005455979886 90.67494282395558 H 0.0 **** 0.06
37374 H 127.15771423243145 86.91218753407107 90.61982194629616 H 0.0 **** 0.06
37375 H 128.32060530808633 86.27896723677078 89.43088163025618 H 0.0 **** 0.06
37376 C 86.84336538656737 58.34201331681258 76.14952912900503 C 0.0 **** -0.24
37377 H 86.06317318394622 58.3120801246822 76.90981937604988 H 0.0 **** 0.06
37378 H 86.71263338467634 59.22946295893378 75.52998863833653 H 0.0 **** 0.06
37379 H 86.77756057532247 57.45042455373088 75.52690217723574 H 0.0 **** 0.06
37380 H 87.81945544644026 58.37580455111474 76.63353066307991 H 0.0 **** 0.06
37381 C 100.50290624079396 3.5567848690330806 139.72381635451546 C 0.0 **** -0.24
37382 H 99.56633533288972 3.117004543485365 140.06655435262752 H 0.0 **** 0.06
37383 H 101.05682175099172 3.942885903352142 140.57986994282493 H 0.0 **** 0.06
37384 H 100.29003643590296 4.370309351574484 139.03036736755502 H 0.0 **** 0.06
37385 H 101.0986152674419 2.7948557594156043 139.2197479586922 H 0.0 **** 0.06
37386 C 199.97433828366712 43.22355218857291 190.98629569878707 C 0.0 **** -0.24
37387 H 200.81541358404004 43.799610482668356 191.3725033148836 H 0.0 **** 0.06
37388 H 200.244849799493 42.78490389575154 190.0253532723802 H 0.0 **** 0.06
37389 H 199.11290691577202 43.879482900164476 190.8577653561663 H 0.0 **** 0.06
37390 H 199.72430374607166 42.42995602349782 191.6905200918958 H 0.0 **** 0.06
37391 C 131.54968676293515 17.157224683113554 153.9533741198216 C 0.0 **** -0.24
37392 H 131.59249162559797 16.06910868388519 153.8957505972267 H 0.0 **** 0.06
37393 H 131.1173049457526 17.45385640702989 154.90890314560966 H 0.0 **** 0.06
37394 H 130.9327368129472 17.539693676769446 153.14017527178282 H 0.0 **** 0.06
37395 H 132.55698869394212 17.564744372002735 153.8668890839727 H 0.0 **** 0.06
37396 C 155.52986133146862 104.58748145269341 179.71052104519657 C 0.0 **** -0.24
37397 H 156.492706762272 104.20979816388986 179.36631594945183 H 0.0 **** 0.06
37398 H 155.68388144596463 105.49548406539965 180.29391988288165 H 0.0 **** 0.06
37399 H 155.04477019315556 103.83413686093253 180.3310278109272 H 0.0 **** 0.06
37400 H 154.89926682370543 104.81111735000694 178.8493255334165 H 0.0 **** 0.06
37401 C 174.46849319202522 216.51096564940758 119.4913276661918 C 0.0 **** -0.24
37402 H 175.21528826306889 216.21211416078177 118.75429233295823 H 0.0 **** 0.06
37403 H 173.5827791117108 215.8848265219017 119.38623966118102 H 0.0 **** 0.06
37404 H 174.1985028437053 217.55473835833865 119.33054868024472 H 0.0 **** 0.06
37405 H 174.88137153841905 216.39311911135343 120.4936199466705 H 0.0 **** 0.06
37406 C 111.38147143333858 189.4035880851732 55.405238785513205 C 0.0 **** -0.24
37407 H 110.47069991068928 188.82582622114626 55.2474775724192 H 0.0 **** 0.06
37408 H 111.36611168143493 189.84209251960507 56.403283916943536 H 0.0 **** 0.06
37409 H 111.44117725144771 190.19725865157093 54.65982587900254 H 0.0 **** 0.06
37410 H 112.24810645289897 188.74947163552184 55.308401018026814 H 0.0 **** 0.06
37411 C 150.51430717669473 99.20114111001959 22.22354883916674 C 0.0 **** -0.24
37412 H 150.3148335986025 98.33914735487826 22.86005664907458 H 0.0 **** 0.06
37413 H 149.7814571655689 99.23388027327405 21.416276781983868 H 0.0 **** 0.06
37414 H 151.51589720228714 99.1184603855848 21.803207987692147 H 0.0 **** 0.06
37415 H 150.44295166436495 100.11385608796542 22.81566783687481 H 0.0 **** 0.06
37416 C 68.71663897216055 126.62037468797566 130.10884455516867 C 0.0 **** -0.24
37417 H 68.70249869240081 126.74794244159632 129.0266631245844 H 0.0 **** 0.06
37418 H 69.34877597835441 125.76998206762487 130.36664554888006 H 0.0 **** 0.06
37419 H 67.70293678794584 126.4421698430243 130.46684880329576 H 0.0 **** 0.06
37420 H 69.11302517178558 127.52204130233746 130.57558263128084 H 0.0 **** 0.06
37421 C 74.04930291605207 75.15732428902129 196.2749657658826 C 0.0 **** -0.24
37422 H 74.07228421966276 74.09621307851086 196.5259578347958 H 0.0 **** 0.06
37423 H 75.06844331936107 75.52196398528349 196.14712264177263 H 0.0 **** 0.06
37424 H 73.56248523656406 75.71001456849575 197.0781140264475 H 0.0 **** 0.06
37425 H 73.49378552961285 75.29842788685085 195.34733256243499 H 0.0 **** 0.06
37426 C 151.3577926546572 61.681558853818785 90.59910516485122 C 0.0 **** -0.24
37427 H 150.80182749933306 60.77253732388482 90.36984387562994 H 0.0 **** 0.06
37428 H 150.79994675299343 62.274584651827524 91.32431858273604 H 0.0 **** 0.06
37429 H 151.49895155057828 62.26032134544238 89.68683039007585 H 0.0 **** 0.06
37430 H 152.32945768339755 61.417082164059195 91.015746835651 H 0.0 **** 0.06
37431 C 169.12233734876548 128.98635477818192 3.3646939766026662 C 0.0 **** -0.24
37432 H 170.18175037181553 129.23932941207084 3.3178749062707595 H 0.0 **** 0.06
37433 H 168.69003463802946 129.05101266775785 2.3652802031169813 H 0.0 **** 0.06
37434 H 168.6114813621474 129.68456274622196 4.027802513944323 H 0.0 **** 0.06
37435 H 169.0086455605201 127.97240017609029 3.745849257883094 H 0.0 **** 0.06
37436 C 69.82291432797724 48.89109980499467 160.11303805649177 C 0.0 **** -0.24
37437 H 69.91206023202615 47.95659839295581 159.55888441431307 H 0.0 **** 0.06
37438 H 69.08858750023944 48.77216722220328 160.91021074819784 H 0.0 **** 0.06
37439 H 69.50094828149491 49.684416357778304 159.43762124645997 H 0.0 **** 0.06
37440 H 70.7891365296981 49.1513501228074 160.5450792159689 H 0.0 **** 0.06
37441 C 175.4929761858956 153.5056695924656 45.24142879783906 C 0.0 **** -0.24
37442 H 175.5025563708991 153.61150737486918 44.15691060533827 H 0.0 **** 0.06
37443 H 174.91820500756293 154.32168112975143 45.681207635813976 H 0.0 **** 0.06
37444 H 176.5158086576555 153.53694790648615 45.61761432153288 H 0.0 **** 0.06
37445 H 175.03628756846194 152.55284519946366 45.509971768558586 H 0.0 **** 0.06
37446 C 164.68882518749916 153.175108470709 201.38092456589885 C 0.0 **** -0.24
37447 H 165.72354743274343 152.97580973018472 201.66186413970667 H 0.0 **** 0.06
37448 H 164.19014702615897 153.7109847331406 202.18782099015115 H 0.0 **** 0.06
37449 H 164.17416314125813 152.23112888200313 201.19808673341225 H 0.0 **** 0.06
37450 H 164.66948765023585 153.7804783869242 200.4750954161726 H 0.0 **** 0.06
37451 C 132.10257562842628 123.37106548765456 165.13197226582315 C 0.0 **** -0.24
37452 H 132.3807127870523 123.00099565823928 166.11828771360265 H 0.0 **** 0.06
37453 H 131.92828092847867 124.44651330431844 165.18349423786668 H 0.0 **** 0.06
37454 H 131.19394740383586 122.8708608947253 164.79910708885214 H 0.0 **** 0.06
37455 H 132.90904224682197 123.16733569087 164.4266986165494 H 0.0 **** 0.06
37456 C 63.9900578589602 200.08125487323588 6.411586655878224 C 0.0 **** -0.24
37457 H 64.97271395666378 199.80528301381534 6.794400797210386 H 0.0 **** 0.06
37458 H 63.85619526232237 199.6583021127649 5.416103909133554 H 0.0 **** 0.06
37459 H 63.91379119067231 201.16746595831833 6.358832352039727 H 0.0 **** 0.06
37460 H 63.21956568781194 199.6943033401674 7.077874468170307 H 0.0 **** 0.06
37461 C 36.02681734900388 64.07076836080918 42.274845601751636 C 0.0 **** -0.24
37462 H 36.08865565653218 63.29822968693831 41.50834370428592 H 0.0 **** 0.06
37463 H 36.78690568462267 64.8289879345466 42.08762666682787 H 0.0 **** 0.06
37464 H 36.190245030662126 63.62433384720261 43.25534381312124 H 0.0 **** 0.06
37465 H 35.03903063495457 64.53208765800406 42.24546751034413 H 0.0 **** 0.06
37466 C 30.155312791002927 80.56132071622018 148.56251225793784 C 0.0 **** -0.24
37467 H 30.491858647554466 79.52846339131288 148.65584382154918 H 0.0 **** 0.06
37468 H 30.732680515592705 81.06137643544243 147.78492758473652 H 0.0 **** 0.06
37469 H 30.298175436603174 81.0768554869661 149.51138014903603 H 0.0 **** 0.06
37470 H 29.098428522513984 80.57574386464462 148.29651836676214 H 0.0 **** 0.06
37471 C 102.86275027458105 145.74203731627574 199.9280074070582 C 0.0 **** -0.24
37472 H 103.8299547388291 146.24218577434613 199.8825192316282 H 0.0 **** 0.06
37473 H 102.2993627567176 145.95755677334853 199.02070592069128 H 0.0 **** 0.06
37474 H 102.30829881656162 146.10072636035176 200.7947945060711 H 0.0 **** 0.06
37475 H 103.01508244839557 144.66607349703162 200.01474212124577 H 0.0 **** 0.06
37476 C 33.57095511358199 61.77902821582225 130.2698048326244 C 0.0 **** -0.24
37477 H 34.32431554286342 61.00615086653988 130.11971888523357 H 0.0 **** 0.06
37478 H 33.79918258553772 62.33747840927421 131.17893561492087 H 0.0 **** 0.06
37479 H 32.5887998137639 61.31552209651892 130.36478476526753 H 0.0 **** 0.06
37480 H 33.57110692184 62.45709390651629 129.41745631137292 H 0.0 **** 0.06
37481 C 151.36118117210867 205.4498197355261 151.64502530074054 C 0.0 **** -0.24
37482 H 152.20115216901604 205.0397486898406 152.20542836347317 H 0.0 **** 0.06
37483 H 151.50780175465263 206.52077667876995 151.50339276918686 H 0.0 **** 0.06
37484 H 150.43830644346673 205.2779536312131 152.19821821444435 H 0.0 **** 0.06
37485 H 151.30035964095396 204.9595360037925 150.67320240152804 H 0.0 **** 0.06
37486 C 7.38171352093002 121.08583942723972 174.51801298989656 C 0.0 **** -0.24
37487 H 7.2735201060361305 120.37626065903514 173.6979902550919 H 0.0 **** 0.06
37488 H 6.415013133833156 121.2323250144339 175.0013084434162 H 0.0 **** 0.06
37489 H 7.741888113846386 122.0377171104033 174.12962497408967 H 0.0 **** 0.06
37490 H 8.096246136192008 120.69566397655773 175.2433028688819 H 0.0 **** 0.06
37491 C 9.681950467359911 55.98923845454959 51.43048479127475 C 0.0 **** -0.24
37492 H 8.708926251227268 56.27091661135432 51.027993266239775 H 0.0 **** 0.06
37493 H 10.453801239182013 56.62071619963865 50.990161744825 H 0.0 **** 0.06
37494 H 9.885339260645708 54.94494094286762 51.19002924376349 H 0.0 **** 0.06
37495 H 9.678849464792364 56.11846042817382 52.51251768902722 H 0.0 **** 0.06
37496 C 21.464482142906633 70.22126497095796 135.30562569992128 C 0.0 **** -0.24
37497 H 21.52418569138902 69.133446576773 135.3388486255206 H 0.0 **** 0.06
37498 H 21.716952230221978 70.62841494709004 136.28459346497186 H 0.0 **** 0.06
37499 H 20.45085466923996 70.52051608320501 135.0380191573501 H 0.0 **** 0.06
37500 H 22.16419552950299 70.60127114702415 134.56203132147186 H 0.0 **** 0.06
@<TRIPOS>BOND
1 1 2 28
2 1 3 28
3 1 4 28
4 1 5 28
5 6 7 28
6 6 8 28
7 6 9 28
8 6 10 28
9 11 12 28
10 11 13 28
11 11 14 28
12 11 15 28
13 16 17 28
14 16 18 28
15 16 19 28
16 16 20 28
17 21 22 28
18 21 23 28
19 21 24 28
20 21 25 28
21 26 27 28
22 26 28 28
23 26 29 28
24 26 30 28
25 31 32 28
26 31 33 28
27 31 34 28
28 31 35 28
29 36 37 28
30 36 38 28
31 36 39 28
32 36 40 28
33 41 42 28
34 41 43 28
35 41 44 28
36 41 45 28
37 46 47 28
38 46 48 28
39 46 49 28
40 46 50 28
41 51 52 28
42 51 53 28
43 51 54 28
44 51 55 28
45 56 57 28
46 56 58 28
47 56 59 28
48 56 60 28
49 61 62 28
50 61 63 28
51 61 64 28
52 61 65 28
53 66 67 28
54 66 68 28
55 66 69 28
56 66 70 28
57 71 72 28
58 71 73 28
59 71 74 28
60 71 75 28
61 76 77 28
62 76 78 28
63 76 79 28
64 76 80 28
65 81 82 28
66 81 83 28
67 81 84 28
68 81 85 28
69 86 87 28
70 86 88 28
71 86 89 28
72 86 90 28
73 91 92 28
74 91 93 28
75 91 94 28
76 91 95 28
77 96 97 28
78 96 98 28
79 96 99 28
80 96 100 28
81 101 102 28
82 101 103 28
83 101 104 28
84 101 105 28
85 106 107 28
86 106 108 28
87 106 109 28
88 106 110 28
89 111 112 28
90 111 113 28
91 111 114 28
92 111 115 28
93 116 117 28
94 116 118 28
95 116 119 28
96 116 120 28
97 121 122 28
98 121 123 28
99 121 124 28
100 121 125 28
101 126 127 28
102 126 128 28
103 126 129 28
104 126 130 28
105 131 132 28
106 131 133 28
107 131 134 28
108 131 135 28
109 136 137 28
110 136 138 28
111 136 139 28
112 136 140 28
113 141 142 28
114 141 143 28
115 141 144 28
116 141 145 28
117 146 147 28
118 146 148 28
119 146 149 28
120 146 150 28
121 151 152 28
122 151 153 28
123 151 154 28
124 151 155 28
125 156 157 28
126 156 158 28
127 156 159 28
128 156 160 28
129 161 162 28
130 161 163 28
131 161 164 28
132 161 165 28
133 166 167 28
134 166 168 28
135 166 169 28
136 166 170 28
137 171 172 28
138 171 173 28
139 171 174 28
140 171 175 28
141 176 177 28
142 176 178 28
143 176 179 28
144 176 180 28
145 181 182 28
146 181 183 28
147 181 184 28
148 181 185 28
149 186 187 28
150 186 188 28
151 186 189 28
152 186 190 28
153 191 192 28
154 191 193 28
155 191 194 28
156 191 195 28
157 196 197 28
158 196 198 28
159 196 199 28
160 196 200 28
161 201 202 28
162 201 203 28
163 201 204 28
164 201 205 28
165 206 207 28
166 206 208 28
167 206 209 28
168 206 210 28
169 211 212 28
170 211 213 28
171 211 214 28
172 211 215 28
173 216 217 28
174 216 218 28
175 216 219 28
176 216 220 28
177 221 222 28
178 221 223 28
179 221 224 28
180 221 225 28
181 226 227 28
182 226 228 28
183 226 229 28
184 226 230 28
185 231 232 28
186 231 233 28
187 231 234 28
188 231 235 28
189 236 237 28
190 236 238 28
191 236 239 28
192 236 240 28
193 241 242 28
194 241 243 28
195 241 244 28
196 241 245 28
197 246 247 28
198 246 248 28
199 246 249 28
200 246 250 28
201 251 252 28
202 251 253 28
203 251 254 28
204 251 255 28
205 256 257 28
206 256 258 28
207 256 259 28
208 256 260 28
209 261 262 28
210 261 263 28
211 261 264 28
212 261 265 28
213 266 267 28
214 266 268 28
215 266 269 28
216 266 270 28
217 271 272 28
218 271 273 28
219 271 274 28
220 271 275 28
221 276 277 28
222 276 278 28
223 276 279 28
224 276 280 28
225 281 282 28
226 281 283 28
227 281 284 28
228 281 285 28
229 286 287 28
230 286 288 28
231 286 289 28
232 286 290 28
233 291 292 28
234 291 293 28
235 291 294 28
236 291 295 28
237 296 297 28
238 296 298 28
239 296 299 28
240 296 300 28
241 301 302 28
242 301 303 28
243 301 304 28
244 301 305 28
245 306 307 28
246 306 308 28
247 306 309 28
248 306 310 28
249 311 312 28
250 311 313 28
251 311 314 28
252 311 315 28
253 316 317 28
254 316 318 28
255 316 319 28
256 316 320 28
257 321 322 28
258 321 323 28
259 321 324 28
260 321 325 28
261 326 327 28
262 326 328 28
263 326 329 28
264 326 330 28
265 331 332 28
266 331 333 28
267 331 334 28
268 331 335 28
269 336 337 28
270 336 338 28
271 336 339 28
272 336 340 28
273 341 342 28
274 341 343 28
275 341 344 28
276 341 345 28
277 346 347 28
278 346 348 28
279 346 349 28
280 346 350 28
281 351 352 28
282 351 353 28
283 351 354 28
284 351 355 28
285 356 357 28
286 356 358 28
287 356 359 28
288 356 360 28
289 361 362 28
290 361 363 28
291 361 364 28
292 361 365 28
293 366 367 28
294 366 368 28
295 366 369 28
296 366 370 28
297 371 372 28
298 371 373 28
299 371 374 28
300 371 375 28
301 376 377 28
302 376 378 28
303 376 379 28
304 376 380 28
305 381 382 28
306 381 383 28
307 381 384 28
308 381 385 28
309 386 387 28
310 386 388 28
311 386 389 28
312 386 390 28
313 391 392 28
314 391 393 28
315 391 394 28
316 391 395 28
317 396 397 28
318 396 398 28
319 396 399 28
320 396 400 28
321 401 402 28
322 401 403 28
323 401 404 28
324 401 405 28
325 406 407 28
326 406 408 28
327 406 409 28
328 406 410 28
329 411 412 28
330 411 413 28
331 411 414 28
332 411 415 28
333 416 417 28
334 416 418 28
335 416 419 28
336 416 420 28
337 421 422 28
338 421 423 28
339 421 424 28
340 421 425 28
341 426 427 28
342 426 428 28
343 426 429 28
344 426 430 28
345 431 432 28
346 431 433 28
347 431 434 28
348 431 435 28
349 436 437 28
350 436 438 28
351 436 439 28
352 436 440 28
353 441 442 28
354 441 443 28
355 441 444 28
356 441 445 28
357 446 447 28
358 446 448 28
359 446 449 28
360 446 450 28
361 451 452 28
362 451 453 28
363 451 454 28
364 451 455 28
365 456 457 28
366 456 458 28
367 456 459 28
368 456 460 28
369 461 462 28
370 461 463 28
371 461 464 28
372 461 465 28
373 466 467 28
374 466 468 28
375 466 469 28
376 466 470 28
377 471 472 28
378 471 473 28
379 471 474 28
380 471 475 28
381 476 477 28
382 476 478 28
383 476 479 28
384 476 480 28
385 481 482 28
386 481 483 28
387 481 484 28
388 481 485 28
389 486 487 28
390 486 488 28
391 486 489 28
392 486 490 28
393 491 492 28
394 491 493 28
395 491 494 28
396 491 495 28
397 496 497 28
398 496 498 28
399 496 499 28
400 496 500 28
401 501 502 28
402 501 503 28
403 501 504 28
404 501 505 28
405 506 507 28
406 506 508 28
407 506 509 28
408 506 510 28
409 511 512 28
410 511 513 28
411 511 514 28
412 511 515 28
413 516 517 28
414 516 518 28
415 516 519 28
416 516 520 28
417 521 522 28
418 521 523 28
419 521 524 28
420 521 525 28
421 526 527 28
422 526 528 28
423 526 529 28
424 526 530 28
425 531 532 28
426 531 533 28
427 531 534 28
428 531 535 28
429 536 537 28
430 536 538 28
431 536 539 28
432 536 540 28
433 541 542 28
434 541 543 28
435 541 544 28
436 541 545 28
437 546 547 28
438 546 548 28
439 546 549 28
440 546 550 28
441 551 552 28
442 551 553 28
443 551 554 28
444 551 555 28
445 556 557 28
446 556 558 28
447 556 559 28
448 556 560 28
449 561 562 28
450 561 563 28
451 561 564 28
452 561 565 28
453 566 567 28
454 566 568 28
455 566 569 28
456 566 570 28
457 571 572 28
458 571 573 28
459 571 574 28
460 571 575 28
461 576 577 28
462 576 578 28
463 576 579 28
464 576 580 28
465 581 582 28
466 581 583 28
467 581 584 28
468 581 585 28
469 586 587 28
470 586 588 28
471 586 589 28
472 586 590 28
473 591 592 28
474 591 593 28
475 591 594 28
476 591 595 28
477 596 597 28
478 596 598 28
479 596 599 28
480 596 600 28
481 601 602 28
482 601 603 28
483 601 604 28
484 601 605 28
485 606 607 28
486 606 608 28
487 606 609 28
488 606 610 28
489 611 612 28
490 611 613 28
491 611 614 28
492 611 615 28
493 616 617 28
494 616 618 28
495 616 619 28
496 616 620 28
497 621 622 28
498 621 623 28
499 621 624 28
500 621 625 28
501 626 627 28
502 626 628 28
503 626 629 28
504 626 630 28
505 631 632 28
506 631 633 28
507 631 634 28
508 631 635 28
509 636 637 28
510 636 638 28
511 636 639 28
512 636 640 28
513 641 642 28
514 641 643 28
515 641 644 28
516 641 645 28
517 646 647 28
518 646 648 28
519 646 649 28
520 646 650 28
521 651 652 28
522 651 653 28
523 651 654 28
524 651 655 28
525 656 657 28
526 656 658 28
527 656 659 28
528 656 660 28
529 661 662 28
530 661 663 28
531 661 664 28
532 661 665 28
533 666 667 28
534 666 668 28
535 666 669 28
536 666 670 28
537 671 672 28
538 671 673 28
539 671 674 28
540 671 675 28
541 676 677 28
542 676 678 28
543 676 679 28
544 676 680 28
545 681 682 28
546 681 683 28
547 681 684 28
548 681 685 28
549 686 687 28
550 686 688 28
551 686 689 28
552 686 690 28
553 691 692 28
554 691 693 28
555 691 694 28
556 691 695 28
557 696 697 28
558 696 698 28
559 696 699 28
560 696 700 28
561 701 702 28
562 701 703 28
563 701 704 28
564 701 705 28
565 706 707 28
566 706 708 28
567 706 709 28
568 706 710 28
569 711 712 28
570 711 713 28
571 711 714 28
572 711 715 28
573 716 717 28
574 716 718 28
575 716 719 28
576 716 720 28
577 721 722 28
578 721 723 28
579 721 724 28
580 721 725 28
581 726 727 28
582 726 728 28
583 726 729 28
584 726 730 28
585 731 732 28
586 731 733 28
587 731 734 28
588 731 735 28
589 736 737 28
590 736 738 28
591 736 739 28
592 736 740 28
593 741 742 28
594 741 743 28
595 741 744 28
596 741 745 28
597 746 747 28
598 746 748 28
599 746 749 28
600 746 750 28
601 751 752 28
602 751 753 28
603 751 754 28
604 751 755 28
605 756 757 28
606 756 758 28
607 756 759 28
608 756 760 28
609 761 762 28
610 761 763 28
611 761 764 28
612 761 765 28
613 766 767 28
614 766 768 28
615 766 769 28
616 766 770 28
617 771 772 28
618 771 773 28
619 771 774 28
620 771 775 28
621 776 777 28
622 776 778 28
623 776 779 28
624 776 780 28
625 781 782 28
626 781 783 28
627 781 784 28
628 781 785 28
629 786 787 28
630 786 788 28
631 786 789 28
632 786 790 28
633 791 792 28
634 791 793 28
635 791 794 28
636 791 795 28
637 796 797 28
638 796 798 28
639 796 799 28
640 796 800 28
641 801 802 28
642 801 803 28
643 801 804 28
644 801 805 28
645 806 807 28
646 806 808 28
647 806 809 28
648 806 810 28
649 811 812 28
650 811 813 28
651 811 814 28
652 811 815 28
653 816 817 28
654 816 818 28
655 816 819 28
656 816 820 28
657 821 822 28
658 821 823 28
659 821 824 28
660 821 825 28
661 826 827 28
662 826 828 28
663 826 829 28
664 826 830 28
665 831 832 28
666 831 833 28
667 831 834 28
668 831 835 28
669 836 837 28
670 836 838 28
671 836 839 28
672 836 840 28
673 841 842 28
674 841 843 28
675 841 844 28
676 841 845 28
677 846 847 28
678 846 848 28
679 846 849 28
680 846 850 28
681 851 852 28
682 851 853 28
683 851 854 28
684 851 855 28
685 856 857 28
686 856 858 28
687 856 859 28
688 856 860 28
689 861 862 28
690 861 863 28
691 861 864 28
692 861 865 28
693 866 867 28
694 866 868 28
695 866 869 28
696 866 870 28
697 871 872 28
698 871 873 28
699 871 874 28
700 871 875 28
701 876 877 28
702 876 878 28
703 876 879 28
704 876 880 28
705 881 882 28
706 881 883 28
707 881 884 28
708 881 885 28
709 886 887 28
710 886 888 28
711 886 889 28
712 886 890 28
713 891 892 28
714 891 893 28
715 891 894 28
716 891 895 28
717 896 897 28
718 896 898 28
719 896 899 28
720 896 900 28
721 901 902 28
722 901 903 28
723 901 904 28
724 901 905 28
725 906 907 28
726 906 908 28
727 906 909 28
728 906 910 28
729 911 912 28
730 911 913 28
731 911 914 28
732 911 915 28
733 916 917 28
734 916 918 28
735 916 919 28
736 916 920 28
737 921 922 28
738 921 923 28
739 921 924 28
740 921 925 28
741 926 927 28
742 926 928 28
743 926 929 28
744 926 930 28
745 931 932 28
746 931 933 28
747 931 934 28
748 931 935 28
749 936 937 28
750 936 938 28
751 936 939 28
752 936 940 28
753 941 942 28
754 941 943 28
755 941 944 28
756 941 945 28
757 946 947 28
758 946 948 28
759 946 949 28
760 946 950 28
761 951 952 28
762 951 953 28
763 951 954 28
764 951 955 28
765 956 957 28
766 956 958 28
767 956 959 28
768 956 960 28
769 961 962 28
770 961 963 28
771 961 964 28
772 961 965 28
773 966 967 28
774 966 968 28
775 966 969 28
776 966 970 28
777 971 972 28
778 971 973 28
779 971 974 28
780 971 975 28
781 976 977 28
782 976 978 28
783 976 979 28
784 976 980 28
785 981 982 28
786 981 983 28
787 981 984 28
788 981 985 28
789 986 987 28
790 986 988 28
791 986 989 28
792 986 990 28
793 991 992 28
794 991 993 28
795 991 994 28
796 991 995 28
797 996 997 28
798 996 998 28
799 996 999 28
800 996 1000 28
801 1001 1002 28
802 1001 1003 28
803 1001 1004 28
804 1001 1005 28
805 1006 1007 28
806 1006 1008 28
807 1006 1009 28
808 1006 1010 28
809 1011 1012 28
810 1011 1013 28
811 1011 1014 28
812 1011 1015 28
813 1016 1017 28
814 1016 1018 28
815 1016 1019 28
816 1016 1020 28
817 1021 1022 28
818 1021 1023 28
819 1021 1024 28
820 1021 1025 28
821 1026 1027 28
822 1026 1028 28
823 1026 1029 28
824 1026 1030 28
825 1031 1032 28
826 1031 1033 28
827 1031 1034 28
828 1031 1035 28
829 1036 1037 28
830 1036 1038 28
831 1036 1039 28
832 1036 1040 28
833 1041 1042 28
834 1041 1043 28
835 1041 1044 28
836 1041 1045 28
837 1046 1047 28
838 1046 1048 28
839 1046 1049 28
840 1046 1050 28
841 1051 1052 28
842 1051 1053 28
843 1051 1054 28
844 1051 1055 28
845 1056 1057 28
846 1056 1058 28
847 1056 1059 28
848 1056 1060 28
849 1061 1062 28
850 1061 1063 28
851 1061 1064 28
852 1061 1065 28
853 1066 1067 28
854 1066 1068 28
855 1066 1069 28
856 1066 1070 28
857 1071 1072 28
858 1071 1073 28
859 1071 1074 28
860 1071 1075 28
861 1076 1077 28
862 1076 1078 28
863 1076 1079 28
864 1076 1080 28
865 1081 1082 28
866 1081 1083 28
867 1081 1084 28
868 1081 1085 28
869 1086 1087 28
870 1086 1088 28
871 1086 1089 28
872 1086 1090 28
873 1091 1092 28
874 1091 1093 28
875 1091 1094 28
876 1091 1095 28
877 1096 1097 28
878 1096 1098 28
879 1096 1099 28
880 1096 1100 28
881 1101 1102 28
882 1101 1103 28
883 1101 1104 28
884 1101 1105 28
885 1106 1107 28
886 1106 1108 28
887 1106 1109 28
888 1106 1110 28
889 1111 1112 28
890 1111 1113 28
891 1111 1114 28
892 1111 1115 28
893 1116 1117 28
894 1116 1118 28
895 1116 1119 28
896 1116 1120 28
897 1121 1122 28
898 1121 1123 28
899 1121 1124 28
900 1121 1125 28
901 1126 1127 28
902 1126 1128 28
903 1126 1129 28
904 1126 1130 28
905 1131 1132 28
906 1131 1133 28
907 1131 1134 28
908 1131 1135 28
909 1136 1137 28
910 1136 1138 28
911 1136 1139 28
912 1136 1140 28
913 1141 1142 28
914 1141 1143 28
915 1141 1144 28
916 1141 1145 28
917 1146 1147 28
918 1146 1148 28
919 1146 1149 28
920 1146 1150 28
921 1151 1152 28
922 1151 1153 28
923 1151 1154 28
924 1151 1155 28
925 1156 1157 28
926 1156 1158 28
927 1156 1159 28
928 1156 1160 28
929 1161 1162 28
930 1161 1163 28
931 1161 1164 28
932 1161 1165 28
933 1166 1167 28
934 1166 1168 28
935 1166 1169 28
936 1166 1170 28
937 1171 1172 28
938 1171 1173 28
939 1171 1174 28
940 1171 1175 28
941 1176 1177 28
942 1176 1178 28
943 1176 1179 28
944 1176 1180 28
945 1181 1182 28
946 1181 1183 28
947 1181 1184 28
948 1181 1185 28
949 1186 1187 28
950 1186 1188 28
951 1186 1189 28
952 1186 1190 28
953 1191 1192 28
954 1191 1193 28
955 1191 1194 28
956 1191 1195 28
957 1196 1197 28
958 1196 1198 28
959 1196 1199 28
960 1196 1200 28
961 1201 1202 28
962 1201 1203 28
963 1201 1204 28
964 1201 1205 28
965 1206 1207 28
966 1206 1208 28
967 1206 1209 28
968 1206 1210 28
969 1211 1212 28
970 1211 1213 28
971 1211 1214 28
972 1211 1215 28
973 1216 1217 28
974 1216 1218 28
975 1216 1219 28
976 1216 1220 28
977 1221 1222 28
978 1221 1223 28
979 1221 1224 28
980 1221 1225 28
981 1226 1227 28
982 1226 1228 28
983 1226 1229 28
984 1226 1230 28
985 1231 1232 28
986 1231 1233 28
987 1231 1234 28
988 1231 1235 28
989 1236 1237 28
990 1236 1238 28
991 1236 1239 28
992 1236 1240 28
993 1241 1242 28
994 1241 1243 28
995 1241 1244 28
996 1241 1245 28
997 1246 1247 28
998 1246 1248 28
999 1246 1249 28
1000 1246 1250 28
1001 1251 1252 28
1002 1251 1253 28
1003 1251 1254 28
1004 1251 1255 28
1005 1256 1257 28
1006 1256 1258 28
1007 1256 1259 28
1008 1256 1260 28
1009 1261 1262 28
1010 1261 1263 28
1011 1261 1264 28
1012 1261 1265 28
1013 1266 1267 28
1014 1266 1268 28
1015 1266 1269 28
1016 1266 1270 28
1017 1271 1272 28
1018 1271 1273 28
1019 1271 1274 28
1020 1271 1275 28
1021 1276 1277 28
1022 1276 1278 28
1023 1276 1279 28
1024 1276 1280 28
1025 1281 1282 28
1026 1281 1283 28
1027 1281 1284 28
1028 1281 1285 28
1029 1286 1287 28
1030 1286 1288 28
1031 1286 1289 28
1032 1286 1290 28
1033 1291 1292 28
1034 1291 1293 28
1035 1291 1294 28
1036 1291 1295 28
1037 1296 1297 28
1038 1296 1298 28
1039 1296 1299 28
1040 1296 1300 28
1041 1301 1302 28
1042 1301 1303 28
1043 1301 1304 28
1044 1301 1305 28
1045 1306 1307 28
1046 1306 1308 28
1047 1306 1309 28
1048 1306 1310 28
1049 1311 1312 28
1050 1311 1313 28
1051 1311 1314 28
1052 1311 1315 28
1053 1316 1317 28
1054 1316 1318 28
1055 1316 1319 28
1056 1316 1320 28
1057 1321 1322 28
1058 1321 1323 28
1059 1321 1324 28
1060 1321 1325 28
1061 1326 1327 28
1062 1326 1328 28
1063 1326 1329 28
1064 1326 1330 28
1065 1331 1332 28
1066 1331 1333 28
1067 1331 1334 28
1068 1331 1335 28
1069 1336 1337 28
1070 1336 1338 28
1071 1336 1339 28
1072 1336 1340 28
1073 1341 1342 28
1074 1341 1343 28
1075 1341 1344 28
1076 1341 1345 28
1077 1346 1347 28
1078 1346 1348 28
1079 1346 1349 28
1080 1346 1350 28
1081 1351 1352 28
1082 1351 1353 28
1083 1351 1354 28
1084 1351 1355 28
1085 1356 1357 28
1086 1356 1358 28
1087 1356 1359 28
1088 1356 1360 28
1089 1361 1362 28
1090 1361 1363 28
1091 1361 1364 28
1092 1361 1365 28
1093 1366 1367 28
1094 1366 1368 28
1095 1366 1369 28
1096 1366 1370 28
1097 1371 1372 28
1098 1371 1373 28
1099 1371 1374 28
1100 1371 1375 28
1101 1376 1377 28
1102 1376 1378 28
1103 1376 1379 28
1104 1376 1380 28
1105 1381 1382 28
1106 1381 1383 28
1107 1381 1384 28
1108 1381 1385 28
1109 1386 1387 28
1110 1386 1388 28
1111 1386 1389 28
1112 1386 1390 28
1113 1391 1392 28
1114 1391 1393 28
1115 1391 1394 28
1116 1391 1395 28
1117 1396 1397 28
1118 1396 1398 28
1119 1396 1399 28
1120 1396 1400 28
1121 1401 1402 28
1122 1401 1403 28
1123 1401 1404 28
1124 1401 1405 28
1125 1406 1407 28
1126 1406 1408 28
1127 1406 1409 28
1128 1406 1410 28
1129 1411 1412 28
1130 1411 1413 28
1131 1411 1414 28
1132 1411 1415 28
1133 1416 1417 28
1134 1416 1418 28
1135 1416 1419 28
1136 1416 1420 28
1137 1421 1422 28
1138 1421 1423 28
1139 1421 1424 28
1140 1421 1425 28
1141 1426 1427 28
1142 1426 1428 28
1143 1426 1429 28
1144 1426 1430 28
1145 1431 1432 28
1146 1431 1433 28
1147 1431 1434 28
1148 1431 1435 28
1149 1436 1437 28
1150 1436 1438 28
1151 1436 1439 28
1152 1436 1440 28
1153 1441 1442 28
1154 1441 1443 28
1155 1441 1444 28
1156 1441 1445 28
1157 1446 1447 28
1158 1446 1448 28
1159 1446 1449 28
1160 1446 1450 28
1161 1451 1452 28
1162 1451 1453 28
1163 1451 1454 28
1164 1451 1455 28
1165 1456 1457 28
1166 1456 1458 28
1167 1456 1459 28
1168 1456 1460 28
1169 1461 1462 28
1170 1461 1463 28
1171 1461 1464 28
1172 1461 1465 28
1173 1466 1467 28
1174 1466 1468 28
1175 1466 1469 28
1176 1466 1470 28
1177 1471 1472 28
1178 1471 1473 28
1179 1471 1474 28
1180 1471 1475 28
1181 1476 1477 28
1182 1476 1478 28
1183 1476 1479 28
1184 1476 1480 28
1185 1481 1482 28
1186 1481 1483 28
1187 1481 1484 28
1188 1481 1485 28
1189 1486 1487 28
1190 1486 1488 28
1191 1486 1489 28
1192 1486 1490 28
1193 1491 1492 28
1194 1491 1493 28
1195 1491 1494 28
1196 1491 1495 28
1197 1496 1497 28
1198 1496 1498 28
1199 1496 1499 28
1200 1496 1500 28
1201 1501 1502 28
1202 1501 1503 28
1203 1501 1504 28
1204 1501 1505 28
1205 1506 1507 28
1206 1506 1508 28
1207 1506 1509 28
1208 1506 1510 28
1209 1511 1512 28
1210 1511 1513 28
1211 1511 1514 28
1212 1511 1515 28
1213 1516 1517 28
1214 1516 1518 28
1215 1516 1519 28
1216 1516 1520 28
1217 1521 1522 28
1218 1521 1523 28
1219 1521 1524 28
1220 1521 1525 28
1221 1526 1527 28
1222 1526 1528 28
1223 1526 1529 28
1224 1526 1530 28
1225 1531 1532 28
1226 1531 1533 28
1227 1531 1534 28
1228 1531 1535 28
1229 1536 1537 28
1230 1536 1538 28
1231 1536 1539 28
1232 1536 1540 28
1233 1541 1542 28
1234 1541 1543 28
1235 1541 1544 28
1236 1541 1545 28
1237 1546 1547 28
1238 1546 1548 28
1239 1546 1549 28
1240 1546 1550 28
1241 1551 1552 28
1242 1551 1553 28
1243 1551 1554 28
1244 1551 1555 28
1245 1556 1557 28
1246 1556 1558 28
1247 1556 1559 28
1248 1556 1560 28
1249 1561 1562 28
1250 1561 1563 28
1251 1561 1564 28
1252 1561 1565 28
1253 1566 1567 28
1254 1566 1568 28
1255 1566 1569 28
1256 1566 1570 28
1257 1571 1572 28
1258 1571 1573 28
1259 1571 1574 28
1260 1571 1575 28
1261 1576 1577 28
1262 1576 1578 28
1263 1576 1579 28
1264 1576 1580 28
1265 1581 1582 28
1266 1581 1583 28
1267 1581 1584 28
1268 1581 1585 28
1269 1586 1587 28
1270 1586 1588 28
1271 1586 1589 28
1272 1586 1590 28
1273 1591 1592 28
1274 1591 1593 28
1275 1591 1594 28
1276 1591 1595 28
1277 1596 1597 28
1278 1596 1598 28
1279 1596 1599 28
1280 1596 1600 28
1281 1601 1602 28
1282 1601 1603 28
1283 1601 1604 28
1284 1601 1605 28
1285 1606 1607 28
1286 1606 1608 28
1287 1606 1609 28
1288 1606 1610 28
1289 1611 1612 28
1290 1611 1613 28
1291 1611 1614 28
1292 1611 1615 28
1293 1616 1617 28
1294 1616 1618 28
1295 1616 1619 28
1296 1616 1620 28
1297 1621 1622 28
1298 1621 1623 28
1299 1621 1624 28
1300 1621 1625 28
1301 1626 1627 28
1302 1626 1628 28
1303 1626 1629 28
1304 1626 1630 28
1305 1631 1632 28
1306 1631 1633 28
1307 1631 1634 28
1308 1631 1635 28
1309 1636 1637 28
1310 1636 1638 28
1311 1636 1639 28
1312 1636 1640 28
1313 1641 1642 28
1314 1641 1643 28
1315 1641 1644 28
1316 1641 1645 28
1317 1646 1647 28
1318 1646 1648 28
1319 1646 1649 28
1320 1646 1650 28
1321 1651 1652 28
1322 1651 1653 28
1323 1651 1654 28
1324 1651 1655 28
1325 1656 1657 28
1326 1656 1658 28
1327 1656 1659 28
1328 1656 1660 28
1329 1661 1662 28
1330 1661 1663 28
1331 1661 1664 28
1332 1661 1665 28
1333 1666 1667 28
1334 1666 1668 28
1335 1666 1669 28
1336 1666 1670 28
1337 1671 1672 28
1338 1671 1673 28
1339 1671 1674 28
1340 1671 1675 28
1341 1676 1677 28
1342 1676 1678 28
1343 1676 1679 28
1344 1676 1680 28
1345 1681 1682 28
1346 1681 1683 28
1347 1681 1684 28
1348 1681 1685 28
1349 1686 1687 28
1350 1686 1688 28
1351 1686 1689 28
1352 1686 1690 28
1353 1691 1692 28
1354 1691 1693 28
1355 1691 1694 28
1356 1691 1695 28
1357 1696 1697 28
1358 1696 1698 28
1359 1696 1699 28
1360 1696 1700 28
1361 1701 1702 28
1362 1701 1703 28
1363 1701 1704 28
1364 1701 1705 28
1365 1706 1707 28
1366 1706 1708 28
1367 1706 1709 28
1368 1706 1710 28
1369 1711 1712 28
1370 1711 1713 28
1371 1711 1714 28
1372 1711 1715 28
1373 1716 1717 28
1374 1716 1718 28
1375 1716 1719 28
1376 1716 1720 28
1377 1721 1722 28
1378 1721 1723 28
1379 1721 1724 28
1380 1721 1725 28
1381 1726 1727 28
1382 1726 1728 28
1383 1726 1729 28
1384 1726 1730 28
1385 1731 1732 28
1386 1731 1733 28
1387 1731 1734 28
1388 1731 1735 28
1389 1736 1737 28
1390 1736 1738 28
1391 1736 1739 28
1392 1736 1740 28
1393 1741 1742 28
1394 1741 1743 28
1395 1741 1744 28
1396 1741 1745 28
1397 1746 1747 28
1398 1746 1748 28
1399 1746 1749 28
1400 1746 1750 28
1401 1751 1752 28
1402 1751 1753 28
1403 1751 1754 28
1404 1751 1755 28
1405 1756 1757 28
1406 1756 1758 28
1407 1756 1759 28
1408 1756 1760 28
1409 1761 1762 28
1410 1761 1763 28
1411 1761 1764 28
1412 1761 1765 28
1413 1766 1767 28
1414 1766 1768 28
1415 1766 1769 28
1416 1766 1770 28
1417 1771 1772 28
1418 1771 1773 28
1419 1771 1774 28
1420 1771 1775 28
1421 1776 1777 28
1422 1776 1778 28
1423 1776 1779 28
1424 1776 1780 28
1425 1781 1782 28
1426 1781 1783 28
1427 1781 1784 28
1428 1781 1785 28
1429 1786 1787 28
1430 1786 1788 28
1431 1786 1789 28
1432 1786 1790 28
1433 1791 1792 28
1434 1791 1793 28
1435 1791 1794 28
1436 1791 1795 28
1437 1796 1797 28
1438 1796 1798 28
1439 1796 1799 28
1440 1796 1800 28
1441 1801 1802 28
1442 1801 1803 28
1443 1801 1804 28
1444 1801 1805 28
1445 1806 1807 28
1446 1806 1808 28
1447 1806 1809 28
1448 1806 1810 28
1449 1811 1812 28
1450 1811 1813 28
1451 1811 1814 28
1452 1811 1815 28
1453 1816 1817 28
1454 1816 1818 28
1455 1816 1819 28
1456 1816 1820 28
1457 1821 1822 28
1458 1821 1823 28
1459 1821 1824 28
1460 1821 1825 28
1461 1826 1827 28
1462 1826 1828 28
1463 1826 1829 28
1464 1826 1830 28
1465 1831 1832 28
1466 1831 1833 28
1467 1831 1834 28
1468 1831 1835 28
1469 1836 1837 28
1470 1836 1838 28
1471 1836 1839 28
1472 1836 1840 28
1473 1841 1842 28
1474 1841 1843 28
1475 1841 1844 28
1476 1841 1845 28
1477 1846 1847 28
1478 1846 1848 28
1479 1846 1849 28
1480 1846 1850 28
1481 1851 1852 28
1482 1851 1853 28
1483 1851 1854 28
1484 1851 1855 28
1485 1856 1857 28
1486 1856 1858 28
1487 1856 1859 28
1488 1856 1860 28
1489 1861 1862 28
1490 1861 1863 28
1491 1861 1864 28
1492 1861 1865 28
1493 1866 1867 28
1494 1866 1868 28
1495 1866 1869 28
1496 1866 1870 28
1497 1871 1872 28
1498 1871 1873 28
1499 1871 1874 28
1500 1871 1875 28
1501 1876 1877 28
1502 1876 1878 28
1503 1876 1879 28
1504 1876 1880 28
1505 1881 1882 28
1506 1881 1883 28
1507 1881 1884 28
1508 1881 1885 28
1509 1886 1887 28
1510 1886 1888 28
1511 1886 1889 28
1512 1886 1890 28
1513 1891 1892 28
1514 1891 1893 28
1515 1891 1894 28
1516 1891 1895 28
1517 1896 1897 28
1518 1896 1898 28
1519 1896 1899 28
1520 1896 1900 28
1521 1901 1902 28
1522 1901 1903 28
1523 1901 1904 28
1524 1901 1905 28
1525 1906 1907 28
1526 1906 1908 28
1527 1906 1909 28
1528 1906 1910 28
1529 1911 1912 28
1530 1911 1913 28
1531 1911 1914 28
1532 1911 1915 28
1533 1916 1917 28
1534 1916 1918 28
1535 1916 1919 28
1536 1916 1920 28
1537 1921 1922 28
1538 1921 1923 28
1539 1921 1924 28
1540 1921 1925 28
1541 1926 1927 28
1542 1926 1928 28
1543 1926 1929 28
1544 1926 1930 28
1545 1931 1932 28
1546 1931 1933 28
1547 1931 1934 28
1548 1931 1935 28
1549 1936 1937 28
1550 1936 1938 28
1551 1936 1939 28
1552 1936 1940 28
1553 1941 1942 28
1554 1941 1943 28
1555 1941 1944 28
1556 1941 1945 28
1557 1946 1947 28
1558 1946 1948 28
1559 1946 1949 28
1560 1946 1950 28
1561 1951 1952 28
1562 1951 1953 28
1563 1951 1954 28
1564 1951 1955 28
1565 1956 1957 28
1566 1956 1958 28
1567 1956 1959 28
1568 1956 1960 28
1569 1961 1962 28
1570 1961 1963 28
1571 1961 1964 28
1572 1961 1965 28
1573 1966 1967 28
1574 1966 1968 28
1575 1966 1969 28
1576 1966 1970 28
1577 1971 1972 28
1578 1971 1973 28
1579 1971 1974 28
1580 1971 1975 28
1581 1976 1977 28
1582 1976 1978 28
1583 1976 1979 28
1584 1976 1980 28
1585 1981 1982 28
1586 1981 1983 28
1587 1981 1984 28
1588 1981 1985 28
1589 1986 1987 28
1590 1986 1988 28
1591 1986 1989 28
1592 1986 1990 28
1593 1991 1992 28
1594 1991 1993 28
1595 1991 1994 28
1596 1991 1995 28
1597 1996 1997 28
1598 1996 1998 28
1599 1996 1999 28
1600 1996 2000 28
1601 2001 2002 28
1602 2001 2003 28
1603 2001 2004 28
1604 2001 2005 28
1605 2006 2007 28
1606 2006 2008 28
1607 2006 2009 28
1608 2006 2010 28
1609 2011 2012 28
1610 2011 2013 28
1611 2011 2014 28
1612 2011 2015 28
1613 2016 2017 28
1614 2016 2018 28
1615 2016 2019 28
1616 2016 2020 28
1617 2021 2022 28
1618 2021 2023 28
1619 2021 2024 28
1620 2021 2025 28
1621 2026 2027 28
1622 2026 2028 28
1623 2026 2029 28
1624 2026 2030 28
1625 2031 2032 28
1626 2031 2033 28
1627 2031 2034 28
1628 2031 2035 28
1629 2036 2037 28
1630 2036 2038 28
1631 2036 2039 28
1632 2036 2040 28
1633 2041 2042 28
1634 2041 2043 28
1635 2041 2044 28
1636 2041 2045 28
1637 2046 2047 28
1638 2046 2048 28
1639 2046 2049 28
1640 2046 2050 28
1641 2051 2052 28
1642 2051 2053 28
1643 2051 2054 28
1644 2051 2055 28
1645 2056 2057 28
1646 2056 2058 28
1647 2056 2059 28
1648 2056 2060 28
1649 2061 2062 28
1650 2061 2063 28
1651 2061 2064 28
1652 2061 2065 28
1653 2066 2067 28
1654 2066 2068 28
1655 2066 2069 28
1656 2066 2070 28
1657 2071 2072 28
1658 2071 2073 28
1659 2071 2074 28
1660 2071 2075 28
1661 2076 2077 28
1662 2076 2078 28
1663 2076 2079 28
1664 2076 2080 28
1665 2081 2082 28
1666 2081 2083 28
1667 2081 2084 28
1668 2081 2085 28
1669 2086 2087 28
1670 2086 2088 28
1671 2086 2089 28
1672 2086 2090 28
1673 2091 2092 28
1674 2091 2093 28
1675 2091 2094 28
1676 2091 2095 28
1677 2096 2097 28
1678 2096 2098 28
1679 2096 2099 28
1680 2096 2100 28
1681 2101 2102 28
1682 2101 2103 28
1683 2101 2104 28
1684 2101 2105 28
1685 2106 2107 28
1686 2106 2108 28
1687 2106 2109 28
1688 2106 2110 28
1689 2111 2112 28
1690 2111 2113 28
1691 2111 2114 28
1692 2111 2115 28
1693 2116 2117 28
1694 2116 2118 28
1695 2116 2119 28
1696 2116 2120 28
1697 2121 2122 28
1698 2121 2123 28
1699 2121 2124 28
1700 2121 2125 28
1701 2126 2127 28
1702 2126 2128 28
1703 2126 2129 28
1704 2126 2130 28
1705 2131 2132 28
1706 2131 2133 28
1707 2131 2134 28
1708 2131 2135 28
1709 2136 2137 28
1710 2136 2138 28
1711 2136 2139 28
1712 2136 2140 28
1713 2141 2142 28
1714 2141 2143 28
1715 2141 2144 28
1716 2141 2145 28
1717 2146 2147 28
1718 2146 2148 28
1719 2146 2149 28
1720 2146 2150 28
1721 2151 2152 28
1722 2151 2153 28
1723 2151 2154 28
1724 2151 2155 28
1725 2156 2157 28
1726 2156 2158 28
1727 2156 2159 28
1728 2156 2160 28
1729 2161 2162 28
1730 2161 2163 28
1731 2161 2164 28
1732 2161 2165 28
1733 2166 2167 28
1734 2166 2168 28
1735 2166 2169 28
1736 2166 2170 28
1737 2171 2172 28
1738 2171 2173 28
1739 2171 2174 28
1740 2171 2175 28
1741 2176 2177 28
1742 2176 2178 28
1743 2176 2179 28
1744 2176 2180 28
1745 2181 2182 28
1746 2181 2183 28
1747 2181 2184 28
1748 2181 2185 28
1749 2186 2187 28
1750 2186 2188 28
1751 2186 2189 28
1752 2186 2190 28
1753 2191 2192 28
1754 2191 2193 28
1755 2191 2194 28
1756 2191 2195 28
1757 2196 2197 28
1758 2196 2198 28
1759 2196 2199 28
1760 2196 2200 28
1761 2201 2202 28
1762 2201 2203 28
1763 2201 2204 28
1764 2201 2205 28
1765 2206 2207 28
1766 2206 2208 28
1767 2206 2209 28
1768 2206 2210 28
1769 2211 2212 28
1770 2211 2213 28
1771 2211 2214 28
1772 2211 2215 28
1773 2216 2217 28
1774 2216 2218 28
1775 2216 2219 28
1776 2216 2220 28
1777 2221 2222 28
1778 2221 2223 28
1779 2221 2224 28
1780 2221 2225 28
1781 2226 2227 28
1782 2226 2228 28
1783 2226 2229 28
1784 2226 2230 28
1785 2231 2232 28
1786 2231 2233 28
1787 2231 2234 28
1788 2231 2235 28
1789 2236 2237 28
1790 2236 2238 28
1791 2236 2239 28
1792 2236 2240 28
1793 2241 2242 28
1794 2241 2243 28
1795 2241 2244 28
1796 2241 2245 28
1797 2246 2247 28
1798 2246 2248 28
1799 2246 2249 28
1800 2246 2250 28
1801 2251 2252 28
1802 2251 2253 28
1803 2251 2254 28
1804 2251 2255 28
1805 2256 2257 28
1806 2256 2258 28
1807 2256 2259 28
1808 2256 2260 28
1809 2261 2262 28
1810 2261 2263 28
1811 2261 2264 28
1812 2261 2265 28
1813 2266 2267 28
1814 2266 2268 28
1815 2266 2269 28
1816 2266 2270 28
1817 2271 2272 28
1818 2271 2273 28
1819 2271 2274 28
1820 2271 2275 28
1821 2276 2277 28
1822 2276 2278 28
1823 2276 2279 28
1824 2276 2280 28
1825 2281 2282 28
1826 2281 2283 28
1827 2281 2284 28
1828 2281 2285 28
1829 2286 2287 28
1830 2286 2288 28
1831 2286 2289 28
1832 2286 2290 28
1833 2291 2292 28
1834 2291 2293 28
1835 2291 2294 28
1836 2291 2295 28
1837 2296 2297 28
1838 2296 2298 28
1839 2296 2299 28
1840 2296 2300 28
1841 2301 2302 28
1842 2301 2303 28
1843 2301 2304 28
1844 2301 2305 28
1845 2306 2307 28
1846 2306 2308 28
1847 2306 2309 28
1848 2306 2310 28
1849 2311 2312 28
1850 2311 2313 28
1851 2311 2314 28
1852 2311 2315 28
1853 2316 2317 28
1854 2316 2318 28
1855 2316 2319 28
1856 2316 2320 28
1857 2321 2322 28
1858 2321 2323 28
1859 2321 2324 28
1860 2321 2325 28
1861 2326 2327 28
1862 2326 2328 28
1863 2326 2329 28
1864 2326 2330 28
1865 2331 2332 28
1866 2331 2333 28
1867 2331 2334 28
1868 2331 2335 28
1869 2336 2337 28
1870 2336 2338 28
1871 2336 2339 28
1872 2336 2340 28
1873 2341 2342 28
1874 2341 2343 28
1875 2341 2344 28
1876 2341 2345 28
1877 2346 2347 28
1878 2346 2348 28
1879 2346 2349 28
1880 2346 2350 28
1881 2351 2352 28
1882 2351 2353 28
1883 2351 2354 28
1884 2351 2355 28
1885 2356 2357 28
1886 2356 2358 28
1887 2356 2359 28
1888 2356 2360 28
1889 2361 2362 28
1890 2361 2363 28
1891 2361 2364 28
1892 2361 2365 28
1893 2366 2367 28
1894 2366 2368 28
1895 2366 2369 28
1896 2366 2370 28
1897 2371 2372 28
1898 2371 2373 28
1899 2371 2374 28
1900 2371 2375 28
1901 2376 2377 28
1902 2376 2378 28
1903 2376 2379 28
1904 2376 2380 28
1905 2381 2382 28
1906 2381 2383 28
1907 2381 2384 28
1908 2381 2385 28
1909 2386 2387 28
1910 2386 2388 28
1911 2386 2389 28
1912 2386 2390 28
1913 2391 2392 28
1914 2391 2393 28
1915 2391 2394 28
1916 2391 2395 28
1917 2396 2397 28
1918 2396 2398 28
1919 2396 2399 28
1920 2396 2400 28
1921 2401 2402 28
1922 2401 2403 28
1923 2401 2404 28
1924 2401 2405 28
1925 2406 2407 28
1926 2406 2408 28
1927 2406 2409 28
1928 2406 2410 28
1929 2411 2412 28
1930 2411 2413 28
1931 2411 2414 28
1932 2411 2415 28
1933 2416 2417 28
1934 2416 2418 28
1935 2416 2419 28
1936 2416 2420 28
1937 2421 2422 28
1938 2421 2423 28
1939 2421 2424 28
1940 2421 2425 28
1941 2426 2427 28
1942 2426 2428 28
1943 2426 2429 28
1944 2426 2430 28
1945 2431 2432 28
1946 2431 2433 28
1947 2431 2434 28
1948 2431 2435 28
1949 2436 2437 28
1950 2436 2438 28
1951 2436 2439 28
1952 2436 2440 28
1953 2441 2442 28
1954 2441 2443 28
1955 2441 2444 28
1956 2441 2445 28
1957 2446 2447 28
1958 2446 2448 28
1959 2446 2449 28
1960 2446 2450 28
1961 2451 2452 28
1962 2451 2453 28
1963 2451 2454 28
1964 2451 2455 28
1965 2456 2457 28
1966 2456 2458 28
1967 2456 2459 28
1968 2456 2460 28
1969 2461 2462 28
1970 2461 2463 28
1971 2461 2464 28
1972 2461 2465 28
1973 2466 2467 28
1974 2466 2468 28
1975 2466 2469 28
1976 2466 2470 28
1977 2471 2472 28
1978 2471 2473 28
1979 2471 2474 28
1980 2471 2475 28
1981 2476 2477 28
1982 2476 2478 28
1983 2476 2479 28
1984 2476 2480 28
1985 2481 2482 28
1986 2481 2483 28
1987 2481 2484 28
1988 2481 2485 28
1989 2486 2487 28
1990 2486 2488 28
1991 2486 2489 28
1992 2486 2490 28
1993 2491 2492 28
1994 2491 2493 28
1995 2491 2494 28
1996 2491 2495 28
1997 2496 2497 28
1998 2496 2498 28
1999 2496 2499 28
2000 2496 2500 28
2001 2501 2502 28
2002 2501 2503 28
2003 2501 2504 28
2004 2501 2505 28
2005 2506 2507 28
2006 2506 2508 28
2007 2506 2509 28
2008 2506 2510 28
2009 2511 2512 28
2010 2511 2513 28
2011 2511 2514 28
2012 2511 2515 28
2013 2516 2517 28
2014 2516 2518 28
2015 2516 2519 28
2016 2516 2520 28
2017 2521 2522 28
2018 2521 2523 28
2019 2521 2524 28
2020 2521 2525 28
2021 2526 2527 28
2022 2526 2528 28
2023 2526 2529 28
2024 2526 2530 28
2025 2531 2532 28
2026 2531 2533 28
2027 2531 2534 28
2028 2531 2535 28
2029 2536 2537 28
2030 2536 2538 28
2031 2536 2539 28
2032 2536 2540 28
2033 2541 2542 28
2034 2541 2543 28
2035 2541 2544 28
2036 2541 2545 28
2037 2546 2547 28
2038 2546 2548 28
2039 2546 2549 28
2040 2546 2550 28
2041 2551 2552 28
2042 2551 2553 28
2043 2551 2554 28
2044 2551 2555 28
2045 2556 2557 28
2046 2556 2558 28
2047 2556 2559 28
2048 2556 2560 28
2049 2561 2562 28
2050 2561 2563 28
2051 2561 2564 28
2052 2561 2565 28
2053 2566 2567 28
2054 2566 2568 28
2055 2566 2569 28
2056 2566 2570 28
2057 2571 2572 28
2058 2571 2573 28
2059 2571 2574 28
2060 2571 2575 28
2061 2576 2577 28
2062 2576 2578 28
2063 2576 2579 28
2064 2576 2580 28
2065 2581 2582 28
2066 2581 2583 28
2067 2581 2584 28
2068 2581 2585 28
2069 2586 2587 28
2070 2586 2588 28
2071 2586 2589 28
2072 2586 2590 28
2073 2591 2592 28
2074 2591 2593 28
2075 2591 2594 28
2076 2591 2595 28
2077 2596 2597 28
2078 2596 2598 28
2079 2596 2599 28
2080 2596 2600 28
2081 2601 2602 28
2082 2601 2603 28
2083 2601 2604 28
2084 2601 2605 28
2085 2606 2607 28
2086 2606 2608 28
2087 2606 2609 28
2088 2606 2610 28
2089 2611 2612 28
2090 2611 2613 28
2091 2611 2614 28
2092 2611 2615 28
2093 2616 2617 28
2094 2616 2618 28
2095 2616 2619 28
2096 2616 2620 28
2097 2621 2622 28
2098 2621 2623 28
2099 2621 2624 28
2100 2621 2625 28
2101 2626 2627 28
2102 2626 2628 28
2103 2626 2629 28
2104 2626 2630 28
2105 2631 2632 28
2106 2631 2633 28
2107 2631 2634 28
2108 2631 2635 28
2109 2636 2637 28
2110 2636 2638 28
2111 2636 2639 28
2112 2636 2640 28
2113 2641 2642 28
2114 2641 2643 28
2115 2641 2644 28
2116 2641 2645 28
2117 2646 2647 28
2118 2646 2648 28
2119 2646 2649 28
2120 2646 2650 28
2121 2651 2652 28
2122 2651 2653 28
2123 2651 2654 28
2124 2651 2655 28
2125 2656 2657 28
2126 2656 2658 28
2127 2656 2659 28
2128 2656 2660 28
2129 2661 2662 28
2130 2661 2663 28
2131 2661 2664 28
2132 2661 2665 28
2133 2666 2667 28
2134 2666 2668 28
2135 2666 2669 28
2136 2666 2670 28
2137 2671 2672 28
2138 2671 2673 28
2139 2671 2674 28
2140 2671 2675 28
2141 2676 2677 28
2142 2676 2678 28
2143 2676 2679 28
2144 2676 2680 28
2145 2681 2682 28
2146 2681 2683 28
2147 2681 2684 28
2148 2681 2685 28
2149 2686 2687 28
2150 2686 2688 28
2151 2686 2689 28
2152 2686 2690 28
2153 2691 2692 28
2154 2691 2693 28
2155 2691 2694 28
2156 2691 2695 28
2157 2696 2697 28
2158 2696 2698 28
2159 2696 2699 28
2160 2696 2700 28
2161 2701 2702 28
2162 2701 2703 28
2163 2701 2704 28
2164 2701 2705 28
2165 2706 2707 28
2166 2706 2708 28
2167 2706 2709 28
2168 2706 2710 28
2169 2711 2712 28
2170 2711 2713 28
2171 2711 2714 28
2172 2711 2715 28
2173 2716 2717 28
2174 2716 2718 28
2175 2716 2719 28
2176 2716 2720 28
2177 2721 2722 28
2178 2721 2723 28
2179 2721 2724 28
2180 2721 2725 28
2181 2726 2727 28
2182 2726 2728 28
2183 2726 2729 28
2184 2726 2730 28
2185 2731 2732 28
2186 2731 2733 28
2187 2731 2734 28
2188 2731 2735 28
2189 2736 2737 28
2190 2736 2738 28
2191 2736 2739 28
2192 2736 2740 28
2193 2741 2742 28
2194 2741 2743 28
2195 2741 2744 28
2196 2741 2745 28
2197 2746 2747 28
2198 2746 2748 28
2199 2746 2749 28
2200 2746 2750 28
2201 2751 2752 28
2202 2751 2753 28
2203 2751 2754 28
2204 2751 2755 28
2205 2756 2757 28
2206 2756 2758 28
2207 2756 2759 28
2208 2756 2760 28
2209 2761 2762 28
2210 2761 2763 28
2211 2761 2764 28
2212 2761 2765 28
2213 2766 2767 28
2214 2766 2768 28
2215 2766 2769 28
2216 2766 2770 28
2217 2771 2772 28
2218 2771 2773 28
2219 2771 2774 28
2220 2771 2775 28
2221 2776 2777 28
2222 2776 2778 28
2223 2776 2779 28
2224 2776 2780 28
2225 2781 2782 28
2226 2781 2783 28
2227 2781 2784 28
2228 2781 2785 28
2229 2786 2787 28
2230 2786 2788 28
2231 2786 2789 28
2232 2786 2790 28
2233 2791 2792 28
2234 2791 2793 28
2235 2791 2794 28
2236 2791 2795 28
2237 2796 2797 28
2238 2796 2798 28
2239 2796 2799 28
2240 2796 2800 28
2241 2801 2802 28
2242 2801 2803 28
2243 2801 2804 28
2244 2801 2805 28
2245 2806 2807 28
2246 2806 2808 28
2247 2806 2809 28
2248 2806 2810 28
2249 2811 2812 28
2250 2811 2813 28
2251 2811 2814 28
2252 2811 2815 28
2253 2816 2817 28
2254 2816 2818 28
2255 2816 2819 28
2256 2816 2820 28
2257 2821 2822 28
2258 2821 2823 28
2259 2821 2824 28
2260 2821 2825 28
2261 2826 2827 28
2262 2826 2828 28
2263 2826 2829 28
2264 2826 2830 28
2265 2831 2832 28
2266 2831 2833 28
2267 2831 2834 28
2268 2831 2835 28
2269 2836 2837 28
2270 2836 2838 28
2271 2836 2839 28
2272 2836 2840 28
2273 2841 2842 28
2274 2841 2843 28
2275 2841 2844 28
2276 2841 2845 28
2277 2846 2847 28
2278 2846 2848 28
2279 2846 2849 28
2280 2846 2850 28
2281 2851 2852 28
2282 2851 2853 28
2283 2851 2854 28
2284 2851 2855 28
2285 2856 2857 28
2286 2856 2858 28
2287 2856 2859 28
2288 2856 2860 28
2289 2861 2862 28
2290 2861 2863 28
2291 2861 2864 28
2292 2861 2865 28
2293 2866 2867 28
2294 2866 2868 28
2295 2866 2869 28
2296 2866 2870 28
2297 2871 2872 28
2298 2871 2873 28
2299 2871 2874 28
2300 2871 2875 28
2301 2876 2877 28
2302 2876 2878 28
2303 2876 2879 28
2304 2876 2880 28
2305 2881 2882 28
2306 2881 2883 28
2307 2881 2884 28
2308 2881 2885 28
2309 2886 2887 28
2310 2886 2888 28
2311 2886 2889 28
2312 2886 2890 28
2313 2891 2892 28
2314 2891 2893 28
2315 2891 2894 28
2316 2891 2895 28
2317 2896 2897 28
2318 2896 2898 28
2319 2896 2899 28
2320 2896 2900 28
2321 2901 2902 28
2322 2901 2903 28
2323 2901 2904 28
2324 2901 2905 28
2325 2906 2907 28
2326 2906 2908 28
2327 2906 2909 28
2328 2906 2910 28
2329 2911 2912 28
2330 2911 2913 28
2331 2911 2914 28
2332 2911 2915 28
2333 2916 2917 28
2334 2916 2918 28
2335 2916 2919 28
2336 2916 2920 28
2337 2921 2922 28
2338 2921 2923 28
2339 2921 2924 28
2340 2921 2925 28
2341 2926 2927 28
2342 2926 2928 28
2343 2926 2929 28
2344 2926 2930 28
2345 2931 2932 28
2346 2931 2933 28
2347 2931 2934 28
2348 2931 2935 28
2349 2936 2937 28
2350 2936 2938 28
2351 2936 2939 28
2352 2936 2940 28
2353 2941 2942 28
2354 2941 2943 28
2355 2941 2944 28
2356 2941 2945 28
2357 2946 2947 28
2358 2946 2948 28
2359 2946 2949 28
2360 2946 2950 28
2361 2951 2952 28
2362 2951 2953 28
2363 2951 2954 28
2364 2951 2955 28
2365 2956 2957 28
2366 2956 2958 28
2367 2956 2959 28
2368 2956 2960 28
2369 2961 2962 28
2370 2961 2963 28
2371 2961 2964 28
2372 2961 2965 28
2373 2966 2967 28
2374 2966 2968 28
2375 2966 2969 28
2376 2966 2970 28
2377 2971 2972 28
2378 2971 2973 28
2379 2971 2974 28
2380 2971 2975 28
2381 2976 2977 28
2382 2976 2978 28
2383 2976 2979 28
2384 2976 2980 28
2385 2981 2982 28
2386 2981 2983 28
2387 2981 2984 28
2388 2981 2985 28
2389 2986 2987 28
2390 2986 2988 28
2391 2986 2989 28
2392 2986 2990 28
2393 2991 2992 28
2394 2991 2993 28
2395 2991 2994 28
2396 2991 2995 28
2397 2996 2997 28
2398 2996 2998 28
2399 2996 2999 28
2400 2996 3000 28
2401 3001 3002 28
2402 3001 3003 28
2403 3001 3004 28
2404 3001 3005 28
2405 3006 3007 28
2406 3006 3008 28
2407 3006 3009 28
2408 3006 3010 28
2409 3011 3012 28
2410 3011 3013 28
2411 3011 3014 28
2412 3011 3015 28
2413 3016 3017 28
2414 3016 3018 28
2415 3016 3019 28
2416 3016 3020 28
2417 3021 3022 28
2418 3021 3023 28
2419 3021 3024 28
2420 3021 3025 28
2421 3026 3027 28
2422 3026 3028 28
2423 3026 3029 28
2424 3026 3030 28
2425 3031 3032 28
2426 3031 3033 28
2427 3031 3034 28
2428 3031 3035 28
2429 3036 3037 28
2430 3036 3038 28
2431 3036 3039 28
2432 3036 3040 28
2433 3041 3042 28
2434 3041 3043 28
2435 3041 3044 28
2436 3041 3045 28
2437 3046 3047 28
2438 3046 3048 28
2439 3046 3049 28
2440 3046 3050 28
2441 3051 3052 28
2442 3051 3053 28
2443 3051 3054 28
2444 3051 3055 28
2445 3056 3057 28
2446 3056 3058 28
2447 3056 3059 28
2448 3056 3060 28
2449 3061 3062 28
2450 3061 3063 28
2451 3061 3064 28
2452 3061 3065 28
2453 3066 3067 28
2454 3066 3068 28
2455 3066 3069 28
2456 3066 3070 28
2457 3071 3072 28
2458 3071 3073 28
2459 3071 3074 28
2460 3071 3075 28
2461 3076 3077 28
2462 3076 3078 28
2463 3076 3079 28
2464 3076 3080 28
2465 3081 3082 28
2466 3081 3083 28
2467 3081 3084 28
2468 3081 3085 28
2469 3086 3087 28
2470 3086 3088 28
2471 3086 3089 28
2472 3086 3090 28
2473 3091 3092 28
2474 3091 3093 28
2475 3091 3094 28
2476 3091 3095 28
2477 3096 3097 28
2478 3096 3098 28
2479 3096 3099 28
2480 3096 3100 28
2481 3101 3102 28
2482 3101 3103 28
2483 3101 3104 28
2484 3101 3105 28
2485 3106 3107 28
2486 3106 3108 28
2487 3106 3109 28
2488 3106 3110 28
2489 3111 3112 28
2490 3111 3113 28
2491 3111 3114 28
2492 3111 3115 28
2493 3116 3117 28
2494 3116 3118 28
2495 3116 3119 28
2496 3116 3120 28
2497 3121 3122 28
2498 3121 3123 28
2499 3121 3124 28
2500 3121 3125 28
2501 3126 3127 28
2502 3126 3128 28
2503 3126 3129 28
2504 3126 3130 28
2505 3131 3132 28
2506 3131 3133 28
2507 3131 3134 28
2508 3131 3135 28
2509 3136 3137 28
2510 3136 3138 28
2511 3136 3139 28
2512 3136 3140 28
2513 3141 3142 28
2514 3141 3143 28
2515 3141 3144 28
2516 3141 3145 28
2517 3146 3147 28
2518 3146 3148 28
2519 3146 3149 28
2520 3146 3150 28
2521 3151 3152 28
2522 3151 3153 28
2523 3151 3154 28
2524 3151 3155 28
2525 3156 3157 28
2526 3156 3158 28
2527 3156 3159 28
2528 3156 3160 28
2529 3161 3162 28
2530 3161 3163 28
2531 3161 3164 28
2532 3161 3165 28
2533 3166 3167 28
2534 3166 3168 28
2535 3166 3169 28
2536 3166 3170 28
2537 3171 3172 28
2538 3171 3173 28
2539 3171 3174 28
2540 3171 3175 28
2541 3176 3177 28
2542 3176 3178 28
2543 3176 3179 28
2544 3176 3180 28
2545 3181 3182 28
2546 3181 3183 28
2547 3181 3184 28
2548 3181 3185 28
2549 3186 3187 28
2550 3186 3188 28
2551 3186 3189 28
2552 3186 3190 28
2553 3191 3192 28
2554 3191 3193 28
2555 3191 3194 28
2556 3191 3195 28
2557 3196 3197 28
2558 3196 3198 28
2559 3196 3199 28
2560 3196 3200 28
2561 3201 3202 28
2562 3201 3203 28
2563 3201 3204 28
2564 3201 3205 28
2565 3206 3207 28
2566 3206 3208 28
2567 3206 3209 28
2568 3206 3210 28
2569 3211 3212 28
2570 3211 3213 28
2571 3211 3214 28
2572 3211 3215 28
2573 3216 3217 28
2574 3216 3218 28
2575 3216 3219 28
2576 3216 3220 28
2577 3221 3222 28
2578 3221 3223 28
2579 3221 3224 28
2580 3221 3225 28
2581 3226 3227 28
2582 3226 3228 28
2583 3226 3229 28
2584 3226 3230 28
2585 3231 3232 28
2586 3231 3233 28
2587 3231 3234 28
2588 3231 3235 28
2589 3236 3237 28
2590 3236 3238 28
2591 3236 3239 28
2592 3236 3240 28
2593 3241 3242 28
2594 3241 3243 28
2595 3241 3244 28
2596 3241 3245 28
2597 3246 3247 28
2598 3246 3248 28
2599 3246 3249 28
2600 3246 3250 28
2601 3251 3252 28
2602 3251 3253 28
2603 3251 3254 28
2604 3251 3255 28
2605 3256 3257 28
2606 3256 3258 28
2607 3256 3259 28
2608 3256 3260 28
2609 3261 3262 28
2610 3261 3263 28
2611 3261 3264 28
2612 3261 3265 28
2613 3266 3267 28
2614 3266 3268 28
2615 3266 3269 28
2616 3266 3270 28
2617 3271 3272 28
2618 3271 3273 28
2619 3271 3274 28
2620 3271 3275 28
2621 3276 3277 28
2622 3276 3278 28
2623 3276 3279 28
2624 3276 3280 28
2625 3281 3282 28
2626 3281 3283 28
2627 3281 3284 28
2628 3281 3285 28
2629 3286 3287 28
2630 3286 3288 28
2631 3286 3289 28
2632 3286 3290 28
2633 3291 3292 28
2634 3291 3293 28
2635 3291 3294 28
2636 3291 3295 28
2637 3296 3297 28
2638 3296 3298 28
2639 3296 3299 28
2640 3296 3300 28
2641 3301 3302 28
2642 3301 3303 28
2643 3301 3304 28
2644 3301 3305 28
2645 3306 3307 28
2646 3306 3308 28
2647 3306 3309 28
2648 3306 3310 28
2649 3311 3312 28
2650 3311 3313 28
2651 3311 3314 28
2652 3311 3315 28
2653 3316 3317 28
2654 3316 3318 28
2655 3316 3319 28
2656 3316 3320 28
2657 3321 3322 28
2658 3321 3323 28
2659 3321 3324 28
2660 3321 3325 28
2661 3326 3327 28
2662 3326 3328 28
2663 3326 3329 28
2664 3326 3330 28
2665 3331 3332 28
2666 3331 3333 28
2667 3331 3334 28
2668 3331 3335 28
2669 3336 3337 28
2670 3336 3338 28
2671 3336 3339 28
2672 3336 3340 28
2673 3341 3342 28
2674 3341 3343 28
2675 3341 3344 28
2676 3341 3345 28
2677 3346 3347 28
2678 3346 3348 28
2679 3346 3349 28
2680 3346 3350 28
2681 3351 3352 28
2682 3351 3353 28
2683 3351 3354 28
2684 3351 3355 28
2685 3356 3357 28
2686 3356 3358 28
2687 3356 3359 28
2688 3356 3360 28
2689 3361 3362 28
2690 3361 3363 28
2691 3361 3364 28
2692 3361 3365 28
2693 3366 3367 28
2694 3366 3368 28
2695 3366 3369 28
2696 3366 3370 28
2697 3371 3372 28
2698 3371 3373 28
2699 3371 3374 28
2700 3371 3375 28
2701 3376 3377 28
2702 3376 3378 28
2703 3376 3379 28
2704 3376 3380 28
2705 3381 3382 28
2706 3381 3383 28
2707 3381 3384 28
2708 3381 3385 28
2709 3386 3387 28
2710 3386 3388 28
2711 3386 3389 28
2712 3386 3390 28
2713 3391 3392 28
2714 3391 3393 28
2715 3391 3394 28
2716 3391 3395 28
2717 3396 3397 28
2718 3396 3398 28
2719 3396 3399 28
2720 3396 3400 28
2721 3401 3402 28
2722 3401 3403 28
2723 3401 3404 28
2724 3401 3405 28
2725 3406 3407 28
2726 3406 3408 28
2727 3406 3409 28
2728 3406 3410 28
2729 3411 3412 28
2730 3411 3413 28
2731 3411 3414 28
2732 3411 3415 28
2733 3416 3417 28
2734 3416 3418 28
2735 3416 3419 28
2736 3416 3420 28
2737 3421 3422 28
2738 3421 3423 28
2739 3421 3424 28
2740 3421 3425 28
2741 3426 3427 28
2742 3426 3428 28
2743 3426 3429 28
2744 3426 3430 28
2745 3431 3432 28
2746 3431 3433 28
2747 3431 3434 28
2748 3431 3435 28
2749 3436 3437 28
2750 3436 3438 28
2751 3436 3439 28
2752 3436 3440 28
2753 3441 3442 28
2754 3441 3443 28
2755 3441 3444 28
2756 3441 3445 28
2757 3446 3447 28
2758 3446 3448 28
2759 3446 3449 28
2760 3446 3450 28
2761 3451 3452 28
2762 3451 3453 28
2763 3451 3454 28
2764 3451 3455 28
2765 3456 3457 28
2766 3456 3458 28
2767 3456 3459 28
2768 3456 3460 28
2769 3461 3462 28
2770 3461 3463 28
2771 3461 3464 28
2772 3461 3465 28
2773 3466 3467 28
2774 3466 3468 28
2775 3466 3469 28
2776 3466 3470 28
2777 3471 3472 28
2778 3471 3473 28
2779 3471 3474 28
2780 3471 3475 28
2781 3476 3477 28
2782 3476 3478 28
2783 3476 3479 28
2784 3476 3480 28
2785 3481 3482 28
2786 3481 3483 28
2787 3481 3484 28
2788 3481 3485 28
2789 3486 3487 28
2790 3486 3488 28
2791 3486 3489 28
2792 3486 3490 28
2793 3491 3492 28
2794 3491 3493 28
2795 3491 3494 28
2796 3491 3495 28
2797 3496 3497 28
2798 3496 3498 28
2799 3496 3499 28
2800 3496 3500 28
2801 3501 3502 28
2802 3501 3503 28
2803 3501 3504 28
2804 3501 3505 28
2805 3506 3507 28
2806 3506 3508 28
2807 3506 3509 28
2808 3506 3510 28
2809 3511 3512 28
2810 3511 3513 28
2811 3511 3514 28
2812 3511 3515 28
2813 3516 3517 28
2814 3516 3518 28
2815 3516 3519 28
2816 3516 3520 28
2817 3521 3522 28
2818 3521 3523 28
2819 3521 3524 28
2820 3521 3525 28
2821 3526 3527 28
2822 3526 3528 28
2823 3526 3529 28
2824 3526 3530 28
2825 3531 3532 28
2826 3531 3533 28
2827 3531 3534 28
2828 3531 3535 28
2829 3536 3537 28
2830 3536 3538 28
2831 3536 3539 28
2832 3536 3540 28
2833 3541 3542 28
2834 3541 3543 28
2835 3541 3544 28
2836 3541 3545 28
2837 3546 3547 28
2838 3546 3548 28
2839 3546 3549 28
2840 3546 3550 28
2841 3551 3552 28
2842 3551 3553 28
2843 3551 3554 28
2844 3551 3555 28
2845 3556 3557 28
2846 3556 3558 28
2847 3556 3559 28
2848 3556 3560 28
2849 3561 3562 28
2850 3561 3563 28
2851 3561 3564 28
2852 3561 3565 28
2853 3566 3567 28
2854 3566 3568 28
2855 3566 3569 28
2856 3566 3570 28
2857 3571 3572 28
2858 3571 3573 28
2859 3571 3574 28
2860 3571 3575 28
2861 3576 3577 28
2862 3576 3578 28
2863 3576 3579 28
2864 3576 3580 28
2865 3581 3582 28
2866 3581 3583 28
2867 3581 3584 28
2868 3581 3585 28
2869 3586 3587 28
2870 3586 3588 28
2871 3586 3589 28
2872 3586 3590 28
2873 3591 3592 28
2874 3591 3593 28
2875 3591 3594 28
2876 3591 3595 28
2877 3596 3597 28
2878 3596 3598 28
2879 3596 3599 28
2880 3596 3600 28
2881 3601 3602 28
2882 3601 3603 28
2883 3601 3604 28
2884 3601 3605 28
2885 3606 3607 28
2886 3606 3608 28
2887 3606 3609 28
2888 3606 3610 28
2889 3611 3612 28
2890 3611 3613 28
2891 3611 3614 28
2892 3611 3615 28
2893 3616 3617 28
2894 3616 3618 28
2895 3616 3619 28
2896 3616 3620 28
2897 3621 3622 28
2898 3621 3623 28
2899 3621 3624 28
2900 3621 3625 28
2901 3626 3627 28
2902 3626 3628 28
2903 3626 3629 28
2904 3626 3630 28
2905 3631 3632 28
2906 3631 3633 28
2907 3631 3634 28
2908 3631 3635 28
2909 3636 3637 28
2910 3636 3638 28
2911 3636 3639 28
2912 3636 3640 28
2913 3641 3642 28
2914 3641 3643 28
2915 3641 3644 28
2916 3641 3645 28
2917 3646 3647 28
2918 3646 3648 28
2919 3646 3649 28
2920 3646 3650 28
2921 3651 3652 28
2922 3651 3653 28
2923 3651 3654 28
2924 3651 3655 28
2925 3656 3657 28
2926 3656 3658 28
2927 3656 3659 28
2928 3656 3660 28
2929 3661 3662 28
2930 3661 3663 28
2931 3661 3664 28
2932 3661 3665 28
2933 3666 3667 28
2934 3666 3668 28
2935 3666 3669 28
2936 3666 3670 28
2937 3671 3672 28
2938 3671 3673 28
2939 3671 3674 28
2940 3671 3675 28
2941 3676 3677 28
2942 3676 3678 28
2943 3676 3679 28
2944 3676 3680 28
2945 3681 3682 28
2946 3681 3683 28
2947 3681 3684 28
2948 3681 3685 28
2949 3686 3687 28
2950 3686 3688 28
2951 3686 3689 28
2952 3686 3690 28
2953 3691 3692 28
2954 3691 3693 28
2955 3691 3694 28
2956 3691 3695 28
2957 3696 3697 28
2958 3696 3698 28
2959 3696 3699 28
2960 3696 3700 28
2961 3701 3702 28
2962 3701 3703 28
2963 3701 3704 28
2964 3701 3705 28
2965 3706 3707 28
2966 3706 3708 28
2967 3706 3709 28
2968 3706 3710 28
2969 3711 3712 28
2970 3711 3713 28
2971 3711 3714 28
2972 3711 3715 28
2973 3716 3717 28
2974 3716 3718 28
2975 3716 3719 28
2976 3716 3720 28
2977 3721 3722 28
2978 3721 3723 28
2979 3721 3724 28
2980 3721 3725 28
2981 3726 3727 28
2982 3726 3728 28
2983 3726 3729 28
2984 3726 3730 28
2985 3731 3732 28
2986 3731 3733 28
2987 3731 3734 28
2988 3731 3735 28
2989 3736 3737 28
2990 3736 3738 28
2991 3736 3739 28
2992 3736 3740 28
2993 3741 3742 28
2994 3741 3743 28
2995 3741 3744 28
2996 3741 3745 28
2997 3746 3747 28
2998 3746 3748 28
2999 3746 3749 28
3000 3746 3750 28
3001 3751 3752 28
3002 3751 3753 28
3003 3751 3754 28
3004 3751 3755 28
3005 3756 3757 28
3006 3756 3758 28
3007 3756 3759 28
3008 3756 3760 28
3009 3761 3762 28
3010 3761 3763 28
3011 3761 3764 28
3012 3761 3765 28
3013 3766 3767 28
3014 3766 3768 28
3015 3766 3769 28
3016 3766 3770 28
3017 3771 3772 28
3018 3771 3773 28
3019 3771 3774 28
3020 3771 3775 28
3021 3776 3777 28
3022 3776 3778 28
3023 3776 3779 28
3024 3776 3780 28
3025 3781 3782 28
3026 3781 3783 28
3027 3781 3784 28
3028 3781 3785 28
3029 3786 3787 28
3030 3786 3788 28
3031 3786 3789 28
3032 3786 3790 28
3033 3791 3792 28
3034 3791 3793 28
3035 3791 3794 28
3036 3791 3795 28
3037 3796 3797 28
3038 3796 3798 28
3039 3796 3799 28
3040 3796 3800 28
3041 3801 3802 28
3042 3801 3803 28
3043 3801 3804 28
3044 3801 3805 28
3045 3806 3807 28
3046 3806 3808 28
3047 3806 3809 28
3048 3806 3810 28
3049 3811 3812 28
3050 3811 3813 28
3051 3811 3814 28
3052 3811 3815 28
3053 3816 3817 28
3054 3816 3818 28
3055 3816 3819 28
3056 3816 3820 28
3057 3821 3822 28
3058 3821 3823 28
3059 3821 3824 28
3060 3821 3825 28
3061 3826 3827 28
3062 3826 3828 28
3063 3826 3829 28
3064 3826 3830 28
3065 3831 3832 28
3066 3831 3833 28
3067 3831 3834 28
3068 3831 3835 28
3069 3836 3837 28
3070 3836 3838 28
3071 3836 3839 28
3072 3836 3840 28
3073 3841 3842 28
3074 3841 3843 28
3075 3841 3844 28
3076 3841 3845 28
3077 3846 3847 28
3078 3846 3848 28
3079 3846 3849 28
3080 3846 3850 28
3081 3851 3852 28
3082 3851 3853 28
3083 3851 3854 28
3084 3851 3855 28
3085 3856 3857 28
3086 3856 3858 28
3087 3856 3859 28
3088 3856 3860 28
3089 3861 3862 28
3090 3861 3863 28
3091 3861 3864 28
3092 3861 3865 28
3093 3866 3867 28
3094 3866 3868 28
3095 3866 3869 28
3096 3866 3870 28
3097 3871 3872 28
3098 3871 3873 28
3099 3871 3874 28
3100 3871 3875 28
3101 3876 3877 28
3102 3876 3878 28
3103 3876 3879 28
3104 3876 3880 28
3105 3881 3882 28
3106 3881 3883 28
3107 3881 3884 28
3108 3881 3885 28
3109 3886 3887 28
3110 3886 3888 28
3111 3886 3889 28
3112 3886 3890 28
3113 3891 3892 28
3114 3891 3893 28
3115 3891 3894 28
3116 3891 3895 28
3117 3896 3897 28
3118 3896 3898 28
3119 3896 3899 28
3120 3896 3900 28
3121 3901 3902 28
3122 3901 3903 28
3123 3901 3904 28
3124 3901 3905 28
3125 3906 3907 28
3126 3906 3908 28
3127 3906 3909 28
3128 3906 3910 28
3129 3911 3912 28
3130 3911 3913 28
3131 3911 3914 28
3132 3911 3915 28
3133 3916 3917 28
3134 3916 3918 28
3135 3916 3919 28
3136 3916 3920 28
3137 3921 3922 28
3138 3921 3923 28
3139 3921 3924 28
3140 3921 3925 28
3141 3926 3927 28
3142 3926 3928 28
3143 3926 3929 28
3144 3926 3930 28
3145 3931 3932 28
3146 3931 3933 28
3147 3931 3934 28
3148 3931 3935 28
3149 3936 3937 28
3150 3936 3938 28
3151 3936 3939 28
3152 3936 3940 28
3153 3941 3942 28
3154 3941 3943 28
3155 3941 3944 28
3156 3941 3945 28
3157 3946 3947 28
3158 3946 3948 28
3159 3946 3949 28
3160 3946 3950 28
3161 3951 3952 28
3162 3951 3953 28
3163 3951 3954 28
3164 3951 3955 28
3165 3956 3957 28
3166 3956 3958 28
3167 3956 3959 28
3168 3956 3960 28
3169 3961 3962 28
3170 3961 3963 28
3171 3961 3964 28
3172 3961 3965 28
3173 3966 3967 28
3174 3966 3968 28
3175 3966 3969 28
3176 3966 3970 28
3177 3971 3972 28
3178 3971 3973 28
3179 3971 3974 28
3180 3971 3975 28
3181 3976 3977 28
3182 3976 3978 28
3183 3976 3979 28
3184 3976 3980 28
3185 3981 3982 28
3186 3981 3983 28
3187 3981 3984 28
3188 3981 3985 28
3189 3986 3987 28
3190 3986 3988 28
3191 3986 3989 28
3192 3986 3990 28
3193 3991 3992 28
3194 3991 3993 28
3195 3991 3994 28
3196 3991 3995 28
3197 3996 3997 28
3198 3996 3998 28
3199 3996 3999 28
3200 3996 4000 28
3201 4001 4002 28
3202 4001 4003 28
3203 4001 4004 28
3204 4001 4005 28
3205 4006 4007 28
3206 4006 4008 28
3207 4006 4009 28
3208 4006 4010 28
3209 4011 4012 28
3210 4011 4013 28
3211 4011 4014 28
3212 4011 4015 28
3213 4016 4017 28
3214 4016 4018 28
3215 4016 4019 28
3216 4016 4020 28
3217 4021 4022 28
3218 4021 4023 28
3219 4021 4024 28
3220 4021 4025 28
3221 4026 4027 28
3222 4026 4028 28
3223 4026 4029 28
3224 4026 4030 28
3225 4031 4032 28
3226 4031 4033 28
3227 4031 4034 28
3228 4031 4035 28
3229 4036 4037 28
3230 4036 4038 28
3231 4036 4039 28
3232 4036 4040 28
3233 4041 4042 28
3234 4041 4043 28
3235 4041 4044 28
3236 4041 4045 28
3237 4046 4047 28
3238 4046 4048 28
3239 4046 4049 28
3240 4046 4050 28
3241 4051 4052 28
3242 4051 4053 28
3243 4051 4054 28
3244 4051 4055 28
3245 4056 4057 28
3246 4056 4058 28
3247 4056 4059 28
3248 4056 4060 28
3249 4061 4062 28
3250 4061 4063 28
3251 4061 4064 28
3252 4061 4065 28
3253 4066 4067 28
3254 4066 4068 28
3255 4066 4069 28
3256 4066 4070 28
3257 4071 4072 28
3258 4071 4073 28
3259 4071 4074 28
3260 4071 4075 28
3261 4076 4077 28
3262 4076 4078 28
3263 4076 4079 28
3264 4076 4080 28
3265 4081 4082 28
3266 4081 4083 28
3267 4081 4084 28
3268 4081 4085 28
3269 4086 4087 28
3270 4086 4088 28
3271 4086 4089 28
3272 4086 4090 28
3273 4091 4092 28
3274 4091 4093 28
3275 4091 4094 28
3276 4091 4095 28
3277 4096 4097 28
3278 4096 4098 28
3279 4096 4099 28
3280 4096 4100 28
3281 4101 4102 28
3282 4101 4103 28
3283 4101 4104 28
3284 4101 4105 28
3285 4106 4107 28
3286 4106 4108 28
3287 4106 4109 28
3288 4106 4110 28
3289 4111 4112 28
3290 4111 4113 28
3291 4111 4114 28
3292 4111 4115 28
3293 4116 4117 28
3294 4116 4118 28
3295 4116 4119 28
3296 4116 4120 28
3297 4121 4122 28
3298 4121 4123 28
3299 4121 4124 28
3300 4121 4125 28
3301 4126 4127 28
3302 4126 4128 28
3303 4126 4129 28
3304 4126 4130 28
3305 4131 4132 28
3306 4131 4133 28
3307 4131 4134 28
3308 4131 4135 28
3309 4136 4137 28
3310 4136 4138 28
3311 4136 4139 28
3312 4136 4140 28
3313 4141 4142 28
3314 4141 4143 28
3315 4141 4144 28
3316 4141 4145 28
3317 4146 4147 28
3318 4146 4148 28
3319 4146 4149 28
3320 4146 4150 28
3321 4151 4152 28
3322 4151 4153 28
3323 4151 4154 28
3324 4151 4155 28
3325 4156 4157 28
3326 4156 4158 28
3327 4156 4159 28
3328 4156 4160 28
3329 4161 4162 28
3330 4161 4163 28
3331 4161 4164 28
3332 4161 4165 28
3333 4166 4167 28
3334 4166 4168 28
3335 4166 4169 28
3336 4166 4170 28
3337 4171 4172 28
3338 4171 4173 28
3339 4171 4174 28
3340 4171 4175 28
3341 4176 4177 28
3342 4176 4178 28
3343 4176 4179 28
3344 4176 4180 28
3345 4181 4182 28
3346 4181 4183 28
3347 4181 4184 28
3348 4181 4185 28
3349 4186 4187 28
3350 4186 4188 28
3351 4186 4189 28
3352 4186 4190 28
3353 4191 4192 28
3354 4191 4193 28
3355 4191 4194 28
3356 4191 4195 28
3357 4196 4197 28
3358 4196 4198 28
3359 4196 4199 28
3360 4196 4200 28
3361 4201 4202 28
3362 4201 4203 28
3363 4201 4204 28
3364 4201 4205 28
3365 4206 4207 28
3366 4206 4208 28
3367 4206 4209 28
3368 4206 4210 28
3369 4211 4212 28
3370 4211 4213 28
3371 4211 4214 28
3372 4211 4215 28
3373 4216 4217 28
3374 4216 4218 28
3375 4216 4219 28
3376 4216 4220 28
3377 4221 4222 28
3378 4221 4223 28
3379 4221 4224 28
3380 4221 4225 28
3381 4226 4227 28
3382 4226 4228 28
3383 4226 4229 28
3384 4226 4230 28
3385 4231 4232 28
3386 4231 4233 28
3387 4231 4234 28
3388 4231 4235 28
3389 4236 4237 28
3390 4236 4238 28
3391 4236 4239 28
3392 4236 4240 28
3393 4241 4242 28
3394 4241 4243 28
3395 4241 4244 28
3396 4241 4245 28
3397 4246 4247 28
3398 4246 4248 28
3399 4246 4249 28
3400 4246 4250 28
3401 4251 4252 28
3402 4251 4253 28
3403 4251 4254 28
3404 4251 4255 28
3405 4256 4257 28
3406 4256 4258 28
3407 4256 4259 28
3408 4256 4260 28
3409 4261 4262 28
3410 4261 4263 28
3411 4261 4264 28
3412 4261 4265 28
3413 4266 4267 28
3414 4266 4268 28
3415 4266 4269 28
3416 4266 4270 28
3417 4271 4272 28
3418 4271 4273 28
3419 4271 4274 28
3420 4271 4275 28
3421 4276 4277 28
3422 4276 4278 28
3423 4276 4279 28
3424 4276 4280 28
3425 4281 4282 28
3426 4281 4283 28
3427 4281 4284 28
3428 4281 4285 28
3429 4286 4287 28
3430 4286 4288 28
3431 4286 4289 28
3432 4286 4290 28
3433 4291 4292 28
3434 4291 4293 28
3435 4291 4294 28
3436 4291 4295 28
3437 4296 4297 28
3438 4296 4298 28
3439 4296 4299 28
3440 4296 4300 28
3441 4301 4302 28
3442 4301 4303 28
3443 4301 4304 28
3444 4301 4305 28
3445 4306 4307 28
3446 4306 4308 28
3447 4306 4309 28
3448 4306 4310 28
3449 4311 4312 28
3450 4311 4313 28
3451 4311 4314 28
3452 4311 4315 28
3453 4316 4317 28
3454 4316 4318 28
3455 4316 4319 28
3456 4316 4320 28
3457 4321 4322 28
3458 4321 4323 28
3459 4321 4324 28
3460 4321 4325 28
3461 4326 4327 28
3462 4326 4328 28
3463 4326 4329 28
3464 4326 4330 28
3465 4331 4332 28
3466 4331 4333 28
3467 4331 4334 28
3468 4331 4335 28
3469 4336 4337 28
3470 4336 4338 28
3471 4336 4339 28
3472 4336 4340 28
3473 4341 4342 28
3474 4341 4343 28
3475 4341 4344 28
3476 4341 4345 28
3477 4346 4347 28
3478 4346 4348 28
3479 4346 4349 28
3480 4346 4350 28
3481 4351 4352 28
3482 4351 4353 28
3483 4351 4354 28
3484 4351 4355 28
3485 4356 4357 28
3486 4356 4358 28
3487 4356 4359 28
3488 4356 4360 28
3489 4361 4362 28
3490 4361 4363 28
3491 4361 4364 28
3492 4361 4365 28
3493 4366 4367 28
3494 4366 4368 28
3495 4366 4369 28
3496 4366 4370 28
3497 4371 4372 28
3498 4371 4373 28
3499 4371 4374 28
3500 4371 4375 28
3501 4376 4377 28
3502 4376 4378 28
3503 4376 4379 28
3504 4376 4380 28
3505 4381 4382 28
3506 4381 4383 28
3507 4381 4384 28
3508 4381 4385 28
3509 4386 4387 28
3510 4386 4388 28
3511 4386 4389 28
3512 4386 4390 28
3513 4391 4392 28
3514 4391 4393 28
3515 4391 4394 28
3516 4391 4395 28
3517 4396 4397 28
3518 4396 4398 28
3519 4396 4399 28
3520 4396 4400 28
3521 4401 4402 28
3522 4401 4403 28
3523 4401 4404 28
3524 4401 4405 28
3525 4406 4407 28
3526 4406 4408 28
3527 4406 4409 28
3528 4406 4410 28
3529 4411 4412 28
3530 4411 4413 28
3531 4411 4414 28
3532 4411 4415 28
3533 4416 4417 28
3534 4416 4418 28
3535 4416 4419 28
3536 4416 4420 28
3537 4421 4422 28
3538 4421 4423 28
3539 4421 4424 28
3540 4421 4425 28
3541 4426 4427 28
3542 4426 4428 28
3543 4426 4429 28
3544 4426 4430 28
3545 4431 4432 28
3546 4431 4433 28
3547 4431 4434 28
3548 4431 4435 28
3549 4436 4437 28
3550 4436 4438 28
3551 4436 4439 28
3552 4436 4440 28
3553 4441 4442 28
3554 4441 4443 28
3555 4441 4444 28
3556 4441 4445 28
3557 4446 4447 28
3558 4446 4448 28
3559 4446 4449 28
3560 4446 4450 28
3561 4451 4452 28
3562 4451 4453 28
3563 4451 4454 28
3564 4451 4455 28
3565 4456 4457 28
3566 4456 4458 28
3567 4456 4459 28
3568 4456 4460 28
3569 4461 4462 28
3570 4461 4463 28
3571 4461 4464 28
3572 4461 4465 28
3573 4466 4467 28
3574 4466 4468 28
3575 4466 4469 28
3576 4466 4470 28
3577 4471 4472 28
3578 4471 4473 28
3579 4471 4474 28
3580 4471 4475 28
3581 4476 4477 28
3582 4476 4478 28
3583 4476 4479 28
3584 4476 4480 28
3585 4481 4482 28
3586 4481 4483 28
3587 4481 4484 28
3588 4481 4485 28
3589 4486 4487 28
3590 4486 4488 28
3591 4486 4489 28
3592 4486 4490 28
3593 4491 4492 28
3594 4491 4493 28
3595 4491 4494 28
3596 4491 4495 28
3597 4496 4497 28
3598 4496 4498 28
3599 4496 4499 28
3600 4496 4500 28
3601 4501 4502 28
3602 4501 4503 28
3603 4501 4504 28
3604 4501 4505 28
3605 4506 4507 28
3606 4506 4508 28
3607 4506 4509 28
3608 4506 4510 28
3609 4511 4512 28
3610 4511 4513 28
3611 4511 4514 28
3612 4511 4515 28
3613 4516 4517 28
3614 4516 4518 28
3615 4516 4519 28
3616 4516 4520 28
3617 4521 4522 28
3618 4521 4523 28
3619 4521 4524 28
3620 4521 4525 28
3621 4526 4527 28
3622 4526 4528 28
3623 4526 4529 28
3624 4526 4530 28
3625 4531 4532 28
3626 4531 4533 28
3627 4531 4534 28
3628 4531 4535 28
3629 4536 4537 28
3630 4536 4538 28
3631 4536 4539 28
3632 4536 4540 28
3633 4541 4542 28
3634 4541 4543 28
3635 4541 4544 28
3636 4541 4545 28
3637 4546 4547 28
3638 4546 4548 28
3639 4546 4549 28
3640 4546 4550 28
3641 4551 4552 28
3642 4551 4553 28
3643 4551 4554 28
3644 4551 4555 28
3645 4556 4557 28
3646 4556 4558 28
3647 4556 4559 28
3648 4556 4560 28
3649 4561 4562 28
3650 4561 4563 28
3651 4561 4564 28
3652 4561 4565 28
3653 4566 4567 28
3654 4566 4568 28
3655 4566 4569 28
3656 4566 4570 28
3657 4571 4572 28
3658 4571 4573 28
3659 4571 4574 28
3660 4571 4575 28
3661 4576 4577 28
3662 4576 4578 28
3663 4576 4579 28
3664 4576 4580 28
3665 4581 4582 28
3666 4581 4583 28
3667 4581 4584 28
3668 4581 4585 28
3669 4586 4587 28
3670 4586 4588 28
3671 4586 4589 28
3672 4586 4590 28
3673 4591 4592 28
3674 4591 4593 28
3675 4591 4594 28
3676 4591 4595 28
3677 4596 4597 28
3678 4596 4598 28
3679 4596 4599 28
3680 4596 4600 28
3681 4601 4602 28
3682 4601 4603 28
3683 4601 4604 28
3684 4601 4605 28
3685 4606 4607 28
3686 4606 4608 28
3687 4606 4609 28
3688 4606 4610 28
3689 4611 4612 28
3690 4611 4613 28
3691 4611 4614 28
3692 4611 4615 28
3693 4616 4617 28
3694 4616 4618 28
3695 4616 4619 28
3696 4616 4620 28
3697 4621 4622 28
3698 4621 4623 28
3699 4621 4624 28
3700 4621 4625 28
3701 4626 4627 28
3702 4626 4628 28
3703 4626 4629 28
3704 4626 4630 28
3705 4631 4632 28
3706 4631 4633 28
3707 4631 4634 28
3708 4631 4635 28
3709 4636 4637 28
3710 4636 4638 28
3711 4636 4639 28
3712 4636 4640 28
3713 4641 4642 28
3714 4641 4643 28
3715 4641 4644 28
3716 4641 4645 28
3717 4646 4647 28
3718 4646 4648 28
3719 4646 4649 28
3720 4646 4650 28
3721 4651 4652 28
3722 4651 4653 28
3723 4651 4654 28
3724 4651 4655 28
3725 4656 4657 28
3726 4656 4658 28
3727 4656 4659 28
3728 4656 4660 28
3729 4661 4662 28
3730 4661 4663 28
3731 4661 4664 28
3732 4661 4665 28
3733 4666 4667 28
3734 4666 4668 28
3735 4666 4669 28
3736 4666 4670 28
3737 4671 4672 28
3738 4671 4673 28
3739 4671 4674 28
3740 4671 4675 28
3741 4676 4677 28
3742 4676 4678 28
3743 4676 4679 28
3744 4676 4680 28
3745 4681 4682 28
3746 4681 4683 28
3747 4681 4684 28
3748 4681 4685 28
3749 4686 4687 28
3750 4686 4688 28
3751 4686 4689 28
3752 4686 4690 28
3753 4691 4692 28
3754 4691 4693 28
3755 4691 4694 28
3756 4691 4695 28
3757 4696 4697 28
3758 4696 4698 28
3759 4696 4699 28
3760 4696 4700 28
3761 4701 4702 28
3762 4701 4703 28
3763 4701 4704 28
3764 4701 4705 28
3765 4706 4707 28
3766 4706 4708 28
3767 4706 4709 28
3768 4706 4710 28
3769 4711 4712 28
3770 4711 4713 28
3771 4711 4714 28
3772 4711 4715 28
3773 4716 4717 28
3774 4716 4718 28
3775 4716 4719 28
3776 4716 4720 28
3777 4721 4722 28
3778 4721 4723 28
3779 4721 4724 28
3780 4721 4725 28
3781 4726 4727 28
3782 4726 4728 28
3783 4726 4729 28
3784 4726 4730 28
3785 4731 4732 28
3786 4731 4733 28
3787 4731 4734 28
3788 4731 4735 28
3789 4736 4737 28
3790 4736 4738 28
3791 4736 4739 28
3792 4736 4740 28
3793 4741 4742 28
3794 4741 4743 28
3795 4741 4744 28
3796 4741 4745 28
3797 4746 4747 28
3798 4746 4748 28
3799 4746 4749 28
3800 4746 4750 28
3801 4751 4752 28
3802 4751 4753 28
3803 4751 4754 28
3804 4751 4755 28
3805 4756 4757 28
3806 4756 4758 28
3807 4756 4759 28
3808 4756 4760 28
3809 4761 4762 28
3810 4761 4763 28
3811 4761 4764 28
3812 4761 4765 28
3813 4766 4767 28
3814 4766 4768 28
3815 4766 4769 28
3816 4766 4770 28
3817 4771 4772 28
3818 4771 4773 28
3819 4771 4774 28
3820 4771 4775 28
3821 4776 4777 28
3822 4776 4778 28
3823 4776 4779 28
3824 4776 4780 28
3825 4781 4782 28
3826 4781 4783 28
3827 4781 4784 28
3828 4781 4785 28
3829 4786 4787 28
3830 4786 4788 28
3831 4786 4789 28
3832 4786 4790 28
3833 4791 4792 28
3834 4791 4793 28
3835 4791 4794 28
3836 4791 4795 28
3837 4796 4797 28
3838 4796 4798 28
3839 4796 4799 28
3840 4796 4800 28
3841 4801 4802 28
3842 4801 4803 28
3843 4801 4804 28
3844 4801 4805 28
3845 4806 4807 28
3846 4806 4808 28
3847 4806 4809 28
3848 4806 4810 28
3849 4811 4812 28
3850 4811 4813 28
3851 4811 4814 28
3852 4811 4815 28
3853 4816 4817 28
3854 4816 4818 28
3855 4816 4819 28
3856 4816 4820 28
3857 4821 4822 28
3858 4821 4823 28
3859 4821 4824 28
3860 4821 4825 28
3861 4826 4827 28
3862 4826 4828 28
3863 4826 4829 28
3864 4826 4830 28
3865 4831 4832 28
3866 4831 4833 28
3867 4831 4834 28
3868 4831 4835 28
3869 4836 4837 28
3870 4836 4838 28
3871 4836 4839 28
3872 4836 4840 28
3873 4841 4842 28
3874 4841 4843 28
3875 4841 4844 28
3876 4841 4845 28
3877 4846 4847 28
3878 4846 4848 28
3879 4846 4849 28
3880 4846 4850 28
3881 4851 4852 28
3882 4851 4853 28
3883 4851 4854 28
3884 4851 4855 28
3885 4856 4857 28
3886 4856 4858 28
3887 4856 4859 28
3888 4856 4860 28
3889 4861 4862 28
3890 4861 4863 28
3891 4861 4864 28
3892 4861 4865 28
3893 4866 4867 28
3894 4866 4868 28
3895 4866 4869 28
3896 4866 4870 28
3897 4871 4872 28
3898 4871 4873 28
3899 4871 4874 28
3900 4871 4875 28
3901 4876 4877 28
3902 4876 4878 28
3903 4876 4879 28
3904 4876 4880 28
3905 4881 4882 28
3906 4881 4883 28
3907 4881 4884 28
3908 4881 4885 28
3909 4886 4887 28
3910 4886 4888 28
3911 4886 4889 28
3912 4886 4890 28
3913 4891 4892 28
3914 4891 4893 28
3915 4891 4894 28
3916 4891 4895 28
3917 4896 4897 28
3918 4896 4898 28
3919 4896 4899 28
3920 4896 4900 28
3921 4901 4902 28
3922 4901 4903 28
3923 4901 4904 28
3924 4901 4905 28
3925 4906 4907 28
3926 4906 4908 28
3927 4906 4909 28
3928 4906 4910 28
3929 4911 4912 28
3930 4911 4913 28
3931 4911 4914 28
3932 4911 4915 28
3933 4916 4917 28
3934 4916 4918 28
3935 4916 4919 28
3936 4916 4920 28
3937 4921 4922 28
3938 4921 4923 28
3939 4921 4924 28
3940 4921 4925 28
3941 4926 4927 28
3942 4926 4928 28
3943 4926 4929 28
3944 4926 4930 28
3945 4931 4932 28
3946 4931 4933 28
3947 4931 4934 28
3948 4931 4935 28
3949 4936 4937 28
3950 4936 4938 28
3951 4936 4939 28
3952 4936 4940 28
3953 4941 4942 28
3954 4941 4943 28
3955 4941 4944 28
3956 4941 4945 28
3957 4946 4947 28
3958 4946 4948 28
3959 4946 4949 28
3960 4946 4950 28
3961 4951 4952 28
3962 4951 4953 28
3963 4951 4954 28
3964 4951 4955 28
3965 4956 4957 28
3966 4956 4958 28
3967 4956 4959 28
3968 4956 4960 28
3969 4961 4962 28
3970 4961 4963 28
3971 4961 4964 28
3972 4961 4965 28
3973 4966 4967 28
3974 4966 4968 28
3975 4966 4969 28
3976 4966 4970 28
3977 4971 4972 28
3978 4971 4973 28
3979 4971 4974 28
3980 4971 4975 28
3981 4976 4977 28
3982 4976 4978 28
3983 4976 4979 28
3984 4976 4980 28
3985 4981 4982 28
3986 4981 4983 28
3987 4981 4984 28
3988 4981 4985 28
3989 4986 4987 28
3990 4986 4988 28
3991 4986 4989 28
3992 4986 4990 28
3993 4991 4992 28
3994 4991 4993 28
3995 4991 4994 28
3996 4991 4995 28
3997 4996 4997 28
3998 4996 4998 28
3999 4996 4999 28
4000 4996 5000 28
4001 5001 5002 28
4002 5001 5003 28
4003 5001 5004 28
4004 5001 5005 28
4005 5006 5007 28
4006 5006 5008 28
4007 5006 5009 28
4008 5006 5010 28
4009 5011 5012 28
4010 5011 5013 28
4011 5011 5014 28
4012 5011 5015 28
4013 5016 5017 28
4014 5016 5018 28
4015 5016 5019 28
4016 5016 5020 28
4017 5021 5022 28
4018 5021 5023 28
4019 5021 5024 28
4020 5021 5025 28
4021 5026 5027 28
4022 5026 5028 28
4023 5026 5029 28
4024 5026 5030 28
4025 5031 5032 28
4026 5031 5033 28
4027 5031 5034 28
4028 5031 5035 28
4029 5036 5037 28
4030 5036 5038 28
4031 5036 5039 28
4032 5036 5040 28
4033 5041 5042 28
4034 5041 5043 28
4035 5041 5044 28
4036 5041 5045 28
4037 5046 5047 28
4038 5046 5048 28
4039 5046 5049 28
4040 5046 5050 28
4041 5051 5052 28
4042 5051 5053 28
4043 5051 5054 28
4044 5051 5055 28
4045 5056 5057 28
4046 5056 5058 28
4047 5056 5059 28
4048 5056 5060 28
4049 5061 5062 28
4050 5061 5063 28
4051 5061 5064 28
4052 5061 5065 28
4053 5066 5067 28
4054 5066 5068 28
4055 5066 5069 28
4056 5066 5070 28
4057 5071 5072 28
4058 5071 5073 28
4059 5071 5074 28
4060 5071 5075 28
4061 5076 5077 28
4062 5076 5078 28
4063 5076 5079 28
4064 5076 5080 28
4065 5081 5082 28
4066 5081 5083 28
4067 5081 5084 28
4068 5081 5085 28
4069 5086 5087 28
4070 5086 5088 28
4071 5086 5089 28
4072 5086 5090 28
4073 5091 5092 28
4074 5091 5093 28
4075 5091 5094 28
4076 5091 5095 28
4077 5096 5097 28
4078 5096 5098 28
4079 5096 5099 28
4080 5096 5100 28
4081 5101 5102 28
4082 5101 5103 28
4083 5101 5104 28
4084 5101 5105 28
4085 5106 5107 28
4086 5106 5108 28
4087 5106 5109 28
4088 5106 5110 28
4089 5111 5112 28
4090 5111 5113 28
4091 5111 5114 28
4092 5111 5115 28
4093 5116 5117 28
4094 5116 5118 28
4095 5116 5119 28
4096 5116 5120 28
4097 5121 5122 28
4098 5121 5123 28
4099 5121 5124 28
4100 5121 5125 28
4101 5126 5127 28
4102 5126 5128 28
4103 5126 5129 28
4104 5126 5130 28
4105 5131 5132 28
4106 5131 5133 28
4107 5131 5134 28
4108 5131 5135 28
4109 5136 5137 28
4110 5136 5138 28
4111 5136 5139 28
4112 5136 5140 28
4113 5141 5142 28
4114 5141 5143 28
4115 5141 5144 28
4116 5141 5145 28
4117 5146 5147 28
4118 5146 5148 28
4119 5146 5149 28
4120 5146 5150 28
4121 5151 5152 28
4122 5151 5153 28
4123 5151 5154 28
4124 5151 5155 28
4125 5156 5157 28
4126 5156 5158 28
4127 5156 5159 28
4128 5156 5160 28
4129 5161 5162 28
4130 5161 5163 28
4131 5161 5164 28
4132 5161 5165 28
4133 5166 5167 28
4134 5166 5168 28
4135 5166 5169 28
4136 5166 5170 28
4137 5171 5172 28
4138 5171 5173 28
4139 5171 5174 28
4140 5171 5175 28
4141 5176 5177 28
4142 5176 5178 28
4143 5176 5179 28
4144 5176 5180 28
4145 5181 5182 28
4146 5181 5183 28
4147 5181 5184 28
4148 5181 5185 28
4149 5186 5187 28
4150 5186 5188 28
4151 5186 5189 28
4152 5186 5190 28
4153 5191 5192 28
4154 5191 5193 28
4155 5191 5194 28
4156 5191 5195 28
4157 5196 5197 28
4158 5196 5198 28
4159 5196 5199 28
4160 5196 5200 28
4161 5201 5202 28
4162 5201 5203 28
4163 5201 5204 28
4164 5201 5205 28
4165 5206 5207 28
4166 5206 5208 28
4167 5206 5209 28
4168 5206 5210 28
4169 5211 5212 28
4170 5211 5213 28
4171 5211 5214 28
4172 5211 5215 28
4173 5216 5217 28
4174 5216 5218 28
4175 5216 5219 28
4176 5216 5220 28
4177 5221 5222 28
4178 5221 5223 28
4179 5221 5224 28
4180 5221 5225 28
4181 5226 5227 28
4182 5226 5228 28
4183 5226 5229 28
4184 5226 5230 28
4185 5231 5232 28
4186 5231 5233 28
4187 5231 5234 28
4188 5231 5235 28
4189 5236 5237 28
4190 5236 5238 28
4191 5236 5239 28
4192 5236 5240 28
4193 5241 5242 28
4194 5241 5243 28
4195 5241 5244 28
4196 5241 5245 28
4197 5246 5247 28
4198 5246 5248 28
4199 5246 5249 28
4200 5246 5250 28
4201 5251 5252 28
4202 5251 5253 28
4203 5251 5254 28
4204 5251 5255 28
4205 5256 5257 28
4206 5256 5258 28
4207 5256 5259 28
4208 5256 5260 28
4209 5261 5262 28
4210 5261 5263 28
4211 5261 5264 28
4212 5261 5265 28
4213 5266 5267 28
4214 5266 5268 28
4215 5266 5269 28
4216 5266 5270 28
4217 5271 5272 28
4218 5271 5273 28
4219 5271 5274 28
4220 5271 5275 28
4221 5276 5277 28
4222 5276 5278 28
4223 5276 5279 28
4224 5276 5280 28
4225 5281 5282 28
4226 5281 5283 28
4227 5281 5284 28
4228 5281 5285 28
4229 5286 5287 28
4230 5286 5288 28
4231 5286 5289 28
4232 5286 5290 28
4233 5291 5292 28
4234 5291 5293 28
4235 5291 5294 28
4236 5291 5295 28
4237 5296 5297 28
4238 5296 5298 28
4239 5296 5299 28
4240 5296 5300 28
4241 5301 5302 28
4242 5301 5303 28
4243 5301 5304 28
4244 5301 5305 28
4245 5306 5307 28
4246 5306 5308 28
4247 5306 5309 28
4248 5306 5310 28
4249 5311 5312 28
4250 5311 5313 28
4251 5311 5314 28
4252 5311 5315 28
4253 5316 5317 28
4254 5316 5318 28
4255 5316 5319 28
4256 5316 5320 28
4257 5321 5322 28
4258 5321 5323 28
4259 5321 5324 28
4260 5321 5325 28
4261 5326 5327 28
4262 5326 5328 28
4263 5326 5329 28
4264 5326 5330 28
4265 5331 5332 28
4266 5331 5333 28
4267 5331 5334 28
4268 5331 5335 28
4269 5336 5337 28
4270 5336 5338 28
4271 5336 5339 28
4272 5336 5340 28
4273 5341 5342 28
4274 5341 5343 28
4275 5341 5344 28
4276 5341 5345 28
4277 5346 5347 28
4278 5346 5348 28
4279 5346 5349 28
4280 5346 5350 28
4281 5351 5352 28
4282 5351 5353 28
4283 5351 5354 28
4284 5351 5355 28
4285 5356 5357 28
4286 5356 5358 28
4287 5356 5359 28
4288 5356 5360 28
4289 5361 5362 28
4290 5361 5363 28
4291 5361 5364 28
4292 5361 5365 28
4293 5366 5367 28
4294 5366 5368 28
4295 5366 5369 28
4296 5366 5370 28
4297 5371 5372 28
4298 5371 5373 28
4299 5371 5374 28
4300 5371 5375 28
4301 5376 5377 28
4302 5376 5378 28
4303 5376 5379 28
4304 5376 5380 28
4305 5381 5382 28
4306 5381 5383 28
4307 5381 5384 28
4308 5381 5385 28
4309 5386 5387 28
4310 5386 5388 28
4311 5386 5389 28
4312 5386 5390 28
4313 5391 5392 28
4314 5391 5393 28
4315 5391 5394 28
4316 5391 5395 28
4317 5396 5397 28
4318 5396 5398 28
4319 5396 5399 28
4320 5396 5400 28
4321 5401 5402 28
4322 5401 5403 28
4323 5401 5404 28
4324 5401 5405 28
4325 5406 5407 28
4326 5406 5408 28
4327 5406 5409 28
4328 5406 5410 28
4329 5411 5412 28
4330 5411 5413 28
4331 5411 5414 28
4332 5411 5415 28
4333 5416 5417 28
4334 5416 5418 28
4335 5416 5419 28
4336 5416 5420 28
4337 5421 5422 28
4338 5421 5423 28
4339 5421 5424 28
4340 5421 5425 28
4341 5426 5427 28
4342 5426 5428 28
4343 5426 5429 28
4344 5426 5430 28
4345 5431 5432 28
4346 5431 5433 28
4347 5431 5434 28
4348 5431 5435 28
4349 5436 5437 28
4350 5436 5438 28
4351 5436 5439 28
4352 5436 5440 28
4353 5441 5442 28
4354 5441 5443 28
4355 5441 5444 28
4356 5441 5445 28
4357 5446 5447 28
4358 5446 5448 28
4359 5446 5449 28
4360 5446 5450 28
4361 5451 5452 28
4362 5451 5453 28
4363 5451 5454 28
4364 5451 5455 28
4365 5456 5457 28
4366 5456 5458 28
4367 5456 5459 28
4368 5456 5460 28
4369 5461 5462 28
4370 5461 5463 28
4371 5461 5464 28
4372 5461 5465 28
4373 5466 5467 28
4374 5466 5468 28
4375 5466 5469 28
4376 5466 5470 28
4377 5471 5472 28
4378 5471 5473 28
4379 5471 5474 28
4380 5471 5475 28
4381 5476 5477 28
4382 5476 5478 28
4383 5476 5479 28
4384 5476 5480 28
4385 5481 5482 28
4386 5481 5483 28
4387 5481 5484 28
4388 5481 5485 28
4389 5486 5487 28
4390 5486 5488 28
4391 5486 5489 28
4392 5486 5490 28
4393 5491 5492 28
4394 5491 5493 28
4395 5491 5494 28
4396 5491 5495 28
4397 5496 5497 28
4398 5496 5498 28
4399 5496 5499 28
4400 5496 5500 28
4401 5501 5502 28
4402 5501 5503 28
4403 5501 5504 28
4404 5501 5505 28
4405 5506 5507 28
4406 5506 5508 28
4407 5506 5509 28
4408 5506 5510 28
4409 5511 5512 28
4410 5511 5513 28
4411 5511 5514 28
4412 5511 5515 28
4413 5516 5517 28
4414 5516 5518 28
4415 5516 5519 28
4416 5516 5520 28
4417 5521 5522 28
4418 5521 5523 28
4419 5521 5524 28
4420 5521 5525 28
4421 5526 5527 28
4422 5526 5528 28
4423 5526 5529 28
4424 5526 5530 28
4425 5531 5532 28
4426 5531 5533 28
4427 5531 5534 28
4428 5531 5535 28
4429 5536 5537 28
4430 5536 5538 28
4431 5536 5539 28
4432 5536 5540 28
4433 5541 5542 28
4434 5541 5543 28
4435 5541 5544 28
4436 5541 5545 28
4437 5546 5547 28
4438 5546 5548 28
4439 5546 5549 28
4440 5546 5550 28
4441 5551 5552 28
4442 5551 5553 28
4443 5551 5554 28
4444 5551 5555 28
4445 5556 5557 28
4446 5556 5558 28
4447 5556 5559 28
4448 5556 5560 28
4449 5561 5562 28
4450 5561 5563 28
4451 5561 5564 28
4452 5561 5565 28
4453 5566 5567 28
4454 5566 5568 28
4455 5566 5569 28
4456 5566 5570 28
4457 5571 5572 28
4458 5571 5573 28
4459 5571 5574 28
4460 5571 5575 28
4461 5576 5577 28
4462 5576 5578 28
4463 5576 5579 28
4464 5576 5580 28
4465 5581 5582 28
4466 5581 5583 28
4467 5581 5584 28
4468 5581 5585 28
4469 5586 5587 28
4470 5586 5588 28
4471 5586 5589 28
4472 5586 5590 28
4473 5591 5592 28
4474 5591 5593 28
4475 5591 5594 28
4476 5591 5595 28
4477 5596 5597 28
4478 5596 5598 28
4479 5596 5599 28
4480 5596 5600 28
4481 5601 5602 28
4482 5601 5603 28
4483 5601 5604 28
4484 5601 5605 28
4485 5606 5607 28
4486 5606 5608 28
4487 5606 5609 28
4488 5606 5610 28
4489 5611 5612 28
4490 5611 5613 28
4491 5611 5614 28
4492 5611 5615 28
4493 5616 5617 28
4494 5616 5618 28
4495 5616 5619 28
4496 5616 5620 28
4497 5621 5622 28
4498 5621 5623 28
4499 5621 5624 28
4500 5621 5625 28
4501 5626 5627 28
4502 5626 5628 28
4503 5626 5629 28
4504 5626 5630 28
4505 5631 5632 28
4506 5631 5633 28
4507 5631 5634 28
4508 5631 5635 28
4509 5636 5637 28
4510 5636 5638 28
4511 5636 5639 28
4512 5636 5640 28
4513 5641 5642 28
4514 5641 5643 28
4515 5641 5644 28
4516 5641 5645 28
4517 5646 5647 28
4518 5646 5648 28
4519 5646 5649 28
4520 5646 5650 28
4521 5651 5652 28
4522 5651 5653 28
4523 5651 5654 28
4524 5651 5655 28
4525 5656 5657 28
4526 5656 5658 28
4527 5656 5659 28
4528 5656 5660 28
4529 5661 5662 28
4530 5661 5663 28
4531 5661 5664 28
4532 5661 5665 28
4533 5666 5667 28
4534 5666 5668 28
4535 5666 5669 28
4536 5666 5670 28
4537 5671 5672 28
4538 5671 5673 28
4539 5671 5674 28
4540 5671 5675 28
4541 5676 5677 28
4542 5676 5678 28
4543 5676 5679 28
4544 5676 5680 28
4545 5681 5682 28
4546 5681 5683 28
4547 5681 5684 28
4548 5681 5685 28
4549 5686 5687 28
4550 5686 5688 28
4551 5686 5689 28
4552 5686 5690 28
4553 5691 5692 28
4554 5691 5693 28
4555 5691 5694 28
4556 5691 5695 28
4557 5696 5697 28
4558 5696 5698 28
4559 5696 5699 28
4560 5696 5700 28
4561 5701 5702 28
4562 5701 5703 28
4563 5701 5704 28
4564 5701 5705 28
4565 5706 5707 28
4566 5706 5708 28
4567 5706 5709 28
4568 5706 5710 28
4569 5711 5712 28
4570 5711 5713 28
4571 5711 5714 28
4572 5711 5715 28
4573 5716 5717 28
4574 5716 5718 28
4575 5716 5719 28
4576 5716 5720 28
4577 5721 5722 28
4578 5721 5723 28
4579 5721 5724 28
4580 5721 5725 28
4581 5726 5727 28
4582 5726 5728 28
4583 5726 5729 28
4584 5726 5730 28
4585 5731 5732 28
4586 5731 5733 28
4587 5731 5734 28
4588 5731 5735 28
4589 5736 5737 28
4590 5736 5738 28
4591 5736 5739 28
4592 5736 5740 28
4593 5741 5742 28
4594 5741 5743 28
4595 5741 5744 28
4596 5741 5745 28
4597 5746 5747 28
4598 5746 5748 28
4599 5746 5749 28
4600 5746 5750 28
4601 5751 5752 28
4602 5751 5753 28
4603 5751 5754 28
4604 5751 5755 28
4605 5756 5757 28
4606 5756 5758 28
4607 5756 5759 28
4608 5756 5760 28
4609 5761 5762 28
4610 5761 5763 28
4611 5761 5764 28
4612 5761 5765 28
4613 5766 5767 28
4614 5766 5768 28
4615 5766 5769 28
4616 5766 5770 28
4617 5771 5772 28
4618 5771 5773 28
4619 5771 5774 28
4620 5771 5775 28
4621 5776 5777 28
4622 5776 5778 28
4623 5776 5779 28
4624 5776 5780 28
4625 5781 5782 28
4626 5781 5783 28
4627 5781 5784 28
4628 5781 5785 28
4629 5786 5787 28
4630 5786 5788 28
4631 5786 5789 28
4632 5786 5790 28
4633 5791 5792 28
4634 5791 5793 28
4635 5791 5794 28
4636 5791 5795 28
4637 5796 5797 28
4638 5796 5798 28
4639 5796 5799 28
4640 5796 5800 28
4641 5801 5802 28
4642 5801 5803 28
4643 5801 5804 28
4644 5801 5805 28
4645 5806 5807 28
4646 5806 5808 28
4647 5806 5809 28
4648 5806 5810 28
4649 5811 5812 28
4650 5811 5813 28
4651 5811 5814 28
4652 5811 5815 28
4653 5816 5817 28
4654 5816 5818 28
4655 5816 5819 28
4656 5816 5820 28
4657 5821 5822 28
4658 5821 5823 28
4659 5821 5824 28
4660 5821 5825 28
4661 5826 5827 28
4662 5826 5828 28
4663 5826 5829 28
4664 5826 5830 28
4665 5831 5832 28
4666 5831 5833 28
4667 5831 5834 28
4668 5831 5835 28
4669 5836 5837 28
4670 5836 5838 28
4671 5836 5839 28
4672 5836 5840 28
4673 5841 5842 28
4674 5841 5843 28
4675 5841 5844 28
4676 5841 5845 28
4677 5846 5847 28
4678 5846 5848 28
4679 5846 5849 28
4680 5846 5850 28
4681 5851 5852 28
4682 5851 5853 28
4683 5851 5854 28
4684 5851 5855 28
4685 5856 5857 28
4686 5856 5858 28
4687 5856 5859 28
4688 5856 5860 28
4689 5861 5862 28
4690 5861 5863 28
4691 5861 5864 28
4692 5861 5865 28
4693 5866 5867 28
4694 5866 5868 28
4695 5866 5869 28
4696 5866 5870 28
4697 5871 5872 28
4698 5871 5873 28
4699 5871 5874 28
4700 5871 5875 28
4701 5876 5877 28
4702 5876 5878 28
4703 5876 5879 28
4704 5876 5880 28
4705 5881 5882 28
4706 5881 5883 28
4707 5881 5884 28
4708 5881 5885 28
4709 5886 5887 28
4710 5886 5888 28
4711 5886 5889 28
4712 5886 5890 28
4713 5891 5892 28
4714 5891 5893 28
4715 5891 5894 28
4716 5891 5895 28
4717 5896 5897 28
4718 5896 5898 28
4719 5896 5899 28
4720 5896 5900 28
4721 5901 5902 28
4722 5901 5903 28
4723 5901 5904 28
4724 5901 5905 28
4725 5906 5907 28
4726 5906 5908 28
4727 5906 5909 28
4728 5906 5910 28
4729 5911 5912 28
4730 5911 5913 28
4731 5911 5914 28
4732 5911 5915 28
4733 5916 5917 28
4734 5916 5918 28
4735 5916 5919 28
4736 5916 5920 28
4737 5921 5922 28
4738 5921 5923 28
4739 5921 5924 28
4740 5921 5925 28
4741 5926 5927 28
4742 5926 5928 28
4743 5926 5929 28
4744 5926 5930 28
4745 5931 5932 28
4746 5931 5933 28
4747 5931 5934 28
4748 5931 5935 28
4749 5936 5937 28
4750 5936 5938 28
4751 5936 5939 28
4752 5936 5940 28
4753 5941 5942 28
4754 5941 5943 28
4755 5941 5944 28
4756 5941 5945 28
4757 5946 5947 28
4758 5946 5948 28
4759 5946 5949 28
4760 5946 5950 28
4761 5951 5952 28
4762 5951 5953 28
4763 5951 5954 28
4764 5951 5955 28
4765 5956 5957 28
4766 5956 5958 28
4767 5956 5959 28
4768 5956 5960 28
4769 5961 5962 28
4770 5961 5963 28
4771 5961 5964 28
4772 5961 5965 28
4773 5966 5967 28
4774 5966 5968 28
4775 5966 5969 28
4776 5966 5970 28
4777 5971 5972 28
4778 5971 5973 28
4779 5971 5974 28
4780 5971 5975 28
4781 5976 5977 28
4782 5976 5978 28
4783 5976 5979 28
4784 5976 5980 28
4785 5981 5982 28
4786 5981 5983 28
4787 5981 5984 28
4788 5981 5985 28
4789 5986 5987 28
4790 5986 5988 28
4791 5986 5989 28
4792 5986 5990 28
4793 5991 5992 28
4794 5991 5993 28
4795 5991 5994 28
4796 5991 5995 28
4797 5996 5997 28
4798 5996 5998 28
4799 5996 5999 28
4800 5996 6000 28
4801 6001 6002 28
4802 6001 6003 28
4803 6001 6004 28
4804 6001 6005 28
4805 6006 6007 28
4806 6006 6008 28
4807 6006 6009 28
4808 6006 6010 28
4809 6011 6012 28
4810 6011 6013 28
4811 6011 6014 28
4812 6011 6015 28
4813 6016 6017 28
4814 6016 6018 28
4815 6016 6019 28
4816 6016 6020 28
4817 6021 6022 28
4818 6021 6023 28
4819 6021 6024 28
4820 6021 6025 28
4821 6026 6027 28
4822 6026 6028 28
4823 6026 6029 28
4824 6026 6030 28
4825 6031 6032 28
4826 6031 6033 28
4827 6031 6034 28
4828 6031 6035 28
4829 6036 6037 28
4830 6036 6038 28
4831 6036 6039 28
4832 6036 6040 28
4833 6041 6042 28
4834 6041 6043 28
4835 6041 6044 28
4836 6041 6045 28
4837 6046 6047 28
4838 6046 6048 28
4839 6046 6049 28
4840 6046 6050 28
4841 6051 6052 28
4842 6051 6053 28
4843 6051 6054 28
4844 6051 6055 28
4845 6056 6057 28
4846 6056 6058 28
4847 6056 6059 28
4848 6056 6060 28
4849 6061 6062 28
4850 6061 6063 28
4851 6061 6064 28
4852 6061 6065 28
4853 6066 6067 28
4854 6066 6068 28
4855 6066 6069 28
4856 6066 6070 28
4857 6071 6072 28
4858 6071 6073 28
4859 6071 6074 28
4860 6071 6075 28
4861 6076 6077 28
4862 6076 6078 28
4863 6076 6079 28
4864 6076 6080 28
4865 6081 6082 28
4866 6081 6083 28
4867 6081 6084 28
4868 6081 6085 28
4869 6086 6087 28
4870 6086 6088 28
4871 6086 6089 28
4872 6086 6090 28
4873 6091 6092 28
4874 6091 6093 28
4875 6091 6094 28
4876 6091 6095 28
4877 6096 6097 28
4878 6096 6098 28
4879 6096 6099 28
4880 6096 6100 28
4881 6101 6102 28
4882 6101 6103 28
4883 6101 6104 28
4884 6101 6105 28
4885 6106 6107 28
4886 6106 6108 28
4887 6106 6109 28
4888 6106 6110 28
4889 6111 6112 28
4890 6111 6113 28
4891 6111 6114 28
4892 6111 6115 28
4893 6116 6117 28
4894 6116 6118 28
4895 6116 6119 28
4896 6116 6120 28
4897 6121 6122 28
4898 6121 6123 28
4899 6121 6124 28
4900 6121 6125 28
4901 6126 6127 28
4902 6126 6128 28
4903 6126 6129 28
4904 6126 6130 28
4905 6131 6132 28
4906 6131 6133 28
4907 6131 6134 28
4908 6131 6135 28
4909 6136 6137 28
4910 6136 6138 28
4911 6136 6139 28
4912 6136 6140 28
4913 6141 6142 28
4914 6141 6143 28
4915 6141 6144 28
4916 6141 6145 28
4917 6146 6147 28
4918 6146 6148 28
4919 6146 6149 28
4920 6146 6150 28
4921 6151 6152 28
4922 6151 6153 28
4923 6151 6154 28
4924 6151 6155 28
4925 6156 6157 28
4926 6156 6158 28
4927 6156 6159 28
4928 6156 6160 28
4929 6161 6162 28
4930 6161 6163 28
4931 6161 6164 28
4932 6161 6165 28
4933 6166 6167 28
4934 6166 6168 28
4935 6166 6169 28
4936 6166 6170 28
4937 6171 6172 28
4938 6171 6173 28
4939 6171 6174 28
4940 6171 6175 28
4941 6176 6177 28
4942 6176 6178 28
4943 6176 6179 28
4944 6176 6180 28
4945 6181 6182 28
4946 6181 6183 28
4947 6181 6184 28
4948 6181 6185 28
4949 6186 6187 28
4950 6186 6188 28
4951 6186 6189 28
4952 6186 6190 28
4953 6191 6192 28
4954 6191 6193 28
4955 6191 6194 28
4956 6191 6195 28
4957 6196 6197 28
4958 6196 6198 28
4959 6196 6199 28
4960 6196 6200 28
4961 6201 6202 28
4962 6201 6203 28
4963 6201 6204 28
4964 6201 6205 28
4965 6206 6207 28
4966 6206 6208 28
4967 6206 6209 28
4968 6206 6210 28
4969 6211 6212 28
4970 6211 6213 28
4971 6211 6214 28
4972 6211 6215 28
4973 6216 6217 28
4974 6216 6218 28
4975 6216 6219 28
4976 6216 6220 28
4977 6221 6222 28
4978 6221 6223 28
4979 6221 6224 28
4980 6221 6225 28
4981 6226 6227 28
4982 6226 6228 28
4983 6226 6229 28
4984 6226 6230 28
4985 6231 6232 28
4986 6231 6233 28
4987 6231 6234 28
4988 6231 6235 28
4989 6236 6237 28
4990 6236 6238 28
4991 6236 6239 28
4992 6236 6240 28
4993 6241 6242 28
4994 6241 6243 28
4995 6241 6244 28
4996 6241 6245 28
4997 6246 6247 28
4998 6246 6248 28
4999 6246 6249 28
5000 6246 6250 28
5001 6251 6252 28
5002 6251 6253 28
5003 6251 6254 28
5004 6251 6255 28
5005 6256 6257 28
5006 6256 6258 28
5007 6256 6259 28
5008 6256 6260 28
5009 6261 6262 28
5010 6261 6263 28
5011 6261 6264 28
5012 6261 6265 28
5013 6266 6267 28
5014 6266 6268 28
5015 6266 6269 28
5016 6266 6270 28
5017 6271 6272 28
5018 6271 6273 28
5019 6271 6274 28
5020 6271 6275 28
5021 6276 6277 28
5022 6276 6278 28
5023 6276 6279 28
5024 6276 6280 28
5025 6281 6282 28
5026 6281 6283 28
5027 6281 6284 28
5028 6281 6285 28
5029 6286 6287 28
5030 6286 6288 28
5031 6286 6289 28
5032 6286 6290 28
5033 6291 6292 28
5034 6291 6293 28
5035 6291 6294 28
5036 6291 6295 28
5037 6296 6297 28
5038 6296 6298 28
5039 6296 6299 28
5040 6296 6300 28
5041 6301 6302 28
5042 6301 6303 28
5043 6301 6304 28
5044 6301 6305 28
5045 6306 6307 28
5046 6306 6308 28
5047 6306 6309 28
5048 6306 6310 28
5049 6311 6312 28
5050 6311 6313 28
5051 6311 6314 28
5052 6311 6315 28
5053 6316 6317 28
5054 6316 6318 28
5055 6316 6319 28
5056 6316 6320 28
5057 6321 6322 28
5058 6321 6323 28
5059 6321 6324 28
5060 6321 6325 28
5061 6326 6327 28
5062 6326 6328 28
5063 6326 6329 28
5064 6326 6330 28
5065 6331 6332 28
5066 6331 6333 28
5067 6331 6334 28
5068 6331 6335 28
5069 6336 6337 28
5070 6336 6338 28
5071 6336 6339 28
5072 6336 6340 28
5073 6341 6342 28
5074 6341 6343 28
5075 6341 6344 28
5076 6341 6345 28
5077 6346 6347 28
5078 6346 6348 28
5079 6346 6349 28
5080 6346 6350 28
5081 6351 6352 28
5082 6351 6353 28
5083 6351 6354 28
5084 6351 6355 28
5085 6356 6357 28
5086 6356 6358 28
5087 6356 6359 28
5088 6356 6360 28
5089 6361 6362 28
5090 6361 6363 28
5091 6361 6364 28
5092 6361 6365 28
5093 6366 6367 28
5094 6366 6368 28
5095 6366 6369 28
5096 6366 6370 28
5097 6371 6372 28
5098 6371 6373 28
5099 6371 6374 28
5100 6371 6375 28
5101 6376 6377 28
5102 6376 6378 28
5103 6376 6379 28
5104 6376 6380 28
5105 6381 6382 28
5106 6381 6383 28
5107 6381 6384 28
5108 6381 6385 28
5109 6386 6387 28
5110 6386 6388 28
5111 6386 6389 28
5112 6386 6390 28
5113 6391 6392 28
5114 6391 6393 28
5115 6391 6394 28
5116 6391 6395 28
5117 6396 6397 28
5118 6396 6398 28
5119 6396 6399 28
5120 6396 6400 28
5121 6401 6402 28
5122 6401 6403 28
5123 6401 6404 28
5124 6401 6405 28
5125 6406 6407 28
5126 6406 6408 28
5127 6406 6409 28
5128 6406 6410 28
5129 6411 6412 28
5130 6411 6413 28
5131 6411 6414 28
5132 6411 6415 28
5133 6416 6417 28
5134 6416 6418 28
5135 6416 6419 28
5136 6416 6420 28
5137 6421 6422 28
5138 6421 6423 28
5139 6421 6424 28
5140 6421 6425 28
5141 6426 6427 28
5142 6426 6428 28
5143 6426 6429 28
5144 6426 6430 28
5145 6431 6432 28
5146 6431 6433 28
5147 6431 6434 28
5148 6431 6435 28
5149 6436 6437 28
5150 6436 6438 28
5151 6436 6439 28
5152 6436 6440 28
5153 6441 6442 28
5154 6441 6443 28
5155 6441 6444 28
5156 6441 6445 28
5157 6446 6447 28
5158 6446 6448 28
5159 6446 6449 28
5160 6446 6450 28
5161 6451 6452 28
5162 6451 6453 28
5163 6451 6454 28
5164 6451 6455 28
5165 6456 6457 28
5166 6456 6458 28
5167 6456 6459 28
5168 6456 6460 28
5169 6461 6462 28
5170 6461 6463 28
5171 6461 6464 28
5172 6461 6465 28
5173 6466 6467 28
5174 6466 6468 28
5175 6466 6469 28
5176 6466 6470 28
5177 6471 6472 28
5178 6471 6473 28
5179 6471 6474 28
5180 6471 6475 28
5181 6476 6477 28
5182 6476 6478 28
5183 6476 6479 28
5184 6476 6480 28
5185 6481 6482 28
5186 6481 6483 28
5187 6481 6484 28
5188 6481 6485 28
5189 6486 6487 28
5190 6486 6488 28
5191 6486 6489 28
5192 6486 6490 28
5193 6491 6492 28
5194 6491 6493 28
5195 6491 6494 28
5196 6491 6495 28
5197 6496 6497 28
5198 6496 6498 28
5199 6496 6499 28
5200 6496 6500 28
5201 6501 6502 28
5202 6501 6503 28
5203 6501 6504 28
5204 6501 6505 28
5205 6506 6507 28
5206 6506 6508 28
5207 6506 6509 28
5208 6506 6510 28
5209 6511 6512 28
5210 6511 6513 28
5211 6511 6514 28
5212 6511 6515 28
5213 6516 6517 28
5214 6516 6518 28
5215 6516 6519 28
5216 6516 6520 28
5217 6521 6522 28
5218 6521 6523 28
5219 6521 6524 28
5220 6521 6525 28
5221 6526 6527 28
5222 6526 6528 28
5223 6526 6529 28
5224 6526 6530 28
5225 6531 6532 28
5226 6531 6533 28
5227 6531 6534 28
5228 6531 6535 28
5229 6536 6537 28
5230 6536 6538 28
5231 6536 6539 28
5232 6536 6540 28
5233 6541 6542 28
5234 6541 6543 28
5235 6541 6544 28
5236 6541 6545 28
5237 6546 6547 28
5238 6546 6548 28
5239 6546 6549 28
5240 6546 6550 28
5241 6551 6552 28
5242 6551 6553 28
5243 6551 6554 28
5244 6551 6555 28
5245 6556 6557 28
5246 6556 6558 28
5247 6556 6559 28
5248 6556 6560 28
5249 6561 6562 28
5250 6561 6563 28
5251 6561 6564 28
5252 6561 6565 28
5253 6566 6567 28
5254 6566 6568 28
5255 6566 6569 28
5256 6566 6570 28
5257 6571 6572 28
5258 6571 6573 28
5259 6571 6574 28
5260 6571 6575 28
5261 6576 6577 28
5262 6576 6578 28
5263 6576 6579 28
5264 6576 6580 28
5265 6581 6582 28
5266 6581 6583 28
5267 6581 6584 28
5268 6581 6585 28
5269 6586 6587 28
5270 6586 6588 28
5271 6586 6589 28
5272 6586 6590 28
5273 6591 6592 28
5274 6591 6593 28
5275 6591 6594 28
5276 6591 6595 28
5277 6596 6597 28
5278 6596 6598 28
5279 6596 6599 28
5280 6596 6600 28
5281 6601 6602 28
5282 6601 6603 28
5283 6601 6604 28
5284 6601 6605 28
5285 6606 6607 28
5286 6606 6608 28
5287 6606 6609 28
5288 6606 6610 28
5289 6611 6612 28
5290 6611 6613 28
5291 6611 6614 28
5292 6611 6615 28
5293 6616 6617 28
5294 6616 6618 28
5295 6616 6619 28
5296 6616 6620 28
5297 6621 6622 28
5298 6621 6623 28
5299 6621 6624 28
5300 6621 6625 28
5301 6626 6627 28
5302 6626 6628 28
5303 6626 6629 28
5304 6626 6630 28
5305 6631 6632 28
5306 6631 6633 28
5307 6631 6634 28
5308 6631 6635 28
5309 6636 6637 28
5310 6636 6638 28
5311 6636 6639 28
5312 6636 6640 28
5313 6641 6642 28
5314 6641 6643 28
5315 6641 6644 28
5316 6641 6645 28
5317 6646 6647 28
5318 6646 6648 28
5319 6646 6649 28
5320 6646 6650 28
5321 6651 6652 28
5322 6651 6653 28
5323 6651 6654 28
5324 6651 6655 28
5325 6656 6657 28
5326 6656 6658 28
5327 6656 6659 28
5328 6656 6660 28
5329 6661 6662 28
5330 6661 6663 28
5331 6661 6664 28
5332 6661 6665 28
5333 6666 6667 28
5334 6666 6668 28
5335 6666 6669 28
5336 6666 6670 28
5337 6671 6672 28
5338 6671 6673 28
5339 6671 6674 28
5340 6671 6675 28
5341 6676 6677 28
5342 6676 6678 28
5343 6676 6679 28
5344 6676 6680 28
5345 6681 6682 28
5346 6681 6683 28
5347 6681 6684 28
5348 6681 6685 28
5349 6686 6687 28
5350 6686 6688 28
5351 6686 6689 28
5352 6686 6690 28
5353 6691 6692 28
5354 6691 6693 28
5355 6691 6694 28
5356 6691 6695 28
5357 6696 6697 28
5358 6696 6698 28
5359 6696 6699 28
5360 6696 6700 28
5361 6701 6702 28
5362 6701 6703 28
5363 6701 6704 28
5364 6701 6705 28
5365 6706 6707 28
5366 6706 6708 28
5367 6706 6709 28
5368 6706 6710 28
5369 6711 6712 28
5370 6711 6713 28
5371 6711 6714 28
5372 6711 6715 28
5373 6716 6717 28
5374 6716 6718 28
5375 6716 6719 28
5376 6716 6720 28
5377 6721 6722 28
5378 6721 6723 28
5379 6721 6724 28
5380 6721 6725 28
5381 6726 6727 28
5382 6726 6728 28
5383 6726 6729 28
5384 6726 6730 28
5385 6731 6732 28
5386 6731 6733 28
5387 6731 6734 28
5388 6731 6735 28
5389 6736 6737 28
5390 6736 6738 28
5391 6736 6739 28
5392 6736 6740 28
5393 6741 6742 28
5394 6741 6743 28
5395 6741 6744 28
5396 6741 6745 28
5397 6746 6747 28
5398 6746 6748 28
5399 6746 6749 28
5400 6746 6750 28
5401 6751 6752 28
5402 6751 6753 28
5403 6751 6754 28
5404 6751 6755 28
5405 6756 6757 28
5406 6756 6758 28
5407 6756 6759 28
5408 6756 6760 28
5409 6761 6762 28
5410 6761 6763 28
5411 6761 6764 28
5412 6761 6765 28
5413 6766 6767 28
5414 6766 6768 28
5415 6766 6769 28
5416 6766 6770 28
5417 6771 6772 28
5418 6771 6773 28
5419 6771 6774 28
5420 6771 6775 28
5421 6776 6777 28
5422 6776 6778 28
5423 6776 6779 28
5424 6776 6780 28
5425 6781 6782 28
5426 6781 6783 28
5427 6781 6784 28
5428 6781 6785 28
5429 6786 6787 28
5430 6786 6788 28
5431 6786 6789 28
5432 6786 6790 28
5433 6791 6792 28
5434 6791 6793 28
5435 6791 6794 28
5436 6791 6795 28
5437 6796 6797 28
5438 6796 6798 28
5439 6796 6799 28
5440 6796 6800 28
5441 6801 6802 28
5442 6801 6803 28
5443 6801 6804 28
5444 6801 6805 28
5445 6806 6807 28
5446 6806 6808 28
5447 6806 6809 28
5448 6806 6810 28
5449 6811 6812 28
5450 6811 6813 28
5451 6811 6814 28
5452 6811 6815 28
5453 6816 6817 28
5454 6816 6818 28
5455 6816 6819 28
5456 6816 6820 28
5457 6821 6822 28
5458 6821 6823 28
5459 6821 6824 28
5460 6821 6825 28
5461 6826 6827 28
5462 6826 6828 28
5463 6826 6829 28
5464 6826 6830 28
5465 6831 6832 28
5466 6831 6833 28
5467 6831 6834 28
5468 6831 6835 28
5469 6836 6837 28
5470 6836 6838 28
5471 6836 6839 28
5472 6836 6840 28
5473 6841 6842 28
5474 6841 6843 28
5475 6841 6844 28
5476 6841 6845 28
5477 6846 6847 28
5478 6846 6848 28
5479 6846 6849 28
5480 6846 6850 28
5481 6851 6852 28
5482 6851 6853 28
5483 6851 6854 28
5484 6851 6855 28
5485 6856 6857 28
5486 6856 6858 28
5487 6856 6859 28
5488 6856 6860 28
5489 6861 6862 28
5490 6861 6863 28
5491 6861 6864 28
5492 6861 6865 28
5493 6866 6867 28
5494 6866 6868 28
5495 6866 6869 28
5496 6866 6870 28
5497 6871 6872 28
5498 6871 6873 28
5499 6871 6874 28
5500 6871 6875 28
5501 6876 6877 28
5502 6876 6878 28
5503 6876 6879 28
5504 6876 6880 28
5505 6881 6882 28
5506 6881 6883 28
5507 6881 6884 28
5508 6881 6885 28
5509 6886 6887 28
5510 6886 6888 28
5511 6886 6889 28
5512 6886 6890 28
5513 6891 6892 28
5514 6891 6893 28
5515 6891 6894 28
5516 6891 6895 28
5517 6896 6897 28
5518 6896 6898 28
5519 6896 6899 28
5520 6896 6900 28
5521 6901 6902 28
5522 6901 6903 28
5523 6901 6904 28
5524 6901 6905 28
5525 6906 6907 28
5526 6906 6908 28
5527 6906 6909 28
5528 6906 6910 28
5529 6911 6912 28
5530 6911 6913 28
5531 6911 6914 28
5532 6911 6915 28
5533 6916 6917 28
5534 6916 6918 28
5535 6916 6919 28
5536 6916 6920 28
5537 6921 6922 28
5538 6921 6923 28
5539 6921 6924 28
5540 6921 6925 28
5541 6926 6927 28
5542 6926 6928 28
5543 6926 6929 28
5544 6926 6930 28
5545 6931 6932 28
5546 6931 6933 28
5547 6931 6934 28
5548 6931 6935 28
5549 6936 6937 28
5550 6936 6938 28
5551 6936 6939 28
5552 6936 6940 28
5553 6941 6942 28
5554 6941 6943 28
5555 6941 6944 28
5556 6941 6945 28
5557 6946 6947 28
5558 6946 6948 28
5559 6946 6949 28
5560 6946 6950 28
5561 6951 6952 28
5562 6951 6953 28
5563 6951 6954 28
5564 6951 6955 28
5565 6956 6957 28
5566 6956 6958 28
5567 6956 6959 28
5568 6956 6960 28
5569 6961 6962 28
5570 6961 6963 28
5571 6961 6964 28
5572 6961 6965 28
5573 6966 6967 28
5574 6966 6968 28
5575 6966 6969 28
5576 6966 6970 28
5577 6971 6972 28
5578 6971 6973 28
5579 6971 6974 28
5580 6971 6975 28
5581 6976 6977 28
5582 6976 6978 28
5583 6976 6979 28
5584 6976 6980 28
5585 6981 6982 28
5586 6981 6983 28
5587 6981 6984 28
5588 6981 6985 28
5589 6986 6987 28
5590 6986 6988 28
5591 6986 6989 28
5592 6986 6990 28
5593 6991 6992 28
5594 6991 6993 28
5595 6991 6994 28
5596 6991 6995 28
5597 6996 6997 28
5598 6996 6998 28
5599 6996 6999 28
5600 6996 7000 28
5601 7001 7002 28
5602 7001 7003 28
5603 7001 7004 28
5604 7001 7005 28
5605 7006 7007 28
5606 7006 7008 28
5607 7006 7009 28
5608 7006 7010 28
5609 7011 7012 28
5610 7011 7013 28
5611 7011 7014 28
5612 7011 7015 28
5613 7016 7017 28
5614 7016 7018 28
5615 7016 7019 28
5616 7016 7020 28
5617 7021 7022 28
5618 7021 7023 28
5619 7021 7024 28
5620 7021 7025 28
5621 7026 7027 28
5622 7026 7028 28
5623 7026 7029 28
5624 7026 7030 28
5625 7031 7032 28
5626 7031 7033 28
5627 7031 7034 28
5628 7031 7035 28
5629 7036 7037 28
5630 7036 7038 28
5631 7036 7039 28
5632 7036 7040 28
5633 7041 7042 28
5634 7041 7043 28
5635 7041 7044 28
5636 7041 7045 28
5637 7046 7047 28
5638 7046 7048 28
5639 7046 7049 28
5640 7046 7050 28
5641 7051 7052 28
5642 7051 7053 28
5643 7051 7054 28
5644 7051 7055 28
5645 7056 7057 28
5646 7056 7058 28
5647 7056 7059 28
5648 7056 7060 28
5649 7061 7062 28
5650 7061 7063 28
5651 7061 7064 28
5652 7061 7065 28
5653 7066 7067 28
5654 7066 7068 28
5655 7066 7069 28
5656 7066 7070 28
5657 7071 7072 28
5658 7071 7073 28
5659 7071 7074 28
5660 7071 7075 28
5661 7076 7077 28
5662 7076 7078 28
5663 7076 7079 28
5664 7076 7080 28
5665 7081 7082 28
5666 7081 7083 28
5667 7081 7084 28
5668 7081 7085 28
5669 7086 7087 28
5670 7086 7088 28
5671 7086 7089 28
5672 7086 7090 28
5673 7091 7092 28
5674 7091 7093 28
5675 7091 7094 28
5676 7091 7095 28
5677 7096 7097 28
5678 7096 7098 28
5679 7096 7099 28
5680 7096 7100 28
5681 7101 7102 28
5682 7101 7103 28
5683 7101 7104 28
5684 7101 7105 28
5685 7106 7107 28
5686 7106 7108 28
5687 7106 7109 28
5688 7106 7110 28
5689 7111 7112 28
5690 7111 7113 28
5691 7111 7114 28
5692 7111 7115 28
5693 7116 7117 28
5694 7116 7118 28
5695 7116 7119 28
5696 7116 7120 28
5697 7121 7122 28
5698 7121 7123 28
5699 7121 7124 28
5700 7121 7125 28
5701 7126 7127 28
5702 7126 7128 28
5703 7126 7129 28
5704 7126 7130 28
5705 7131 7132 28
5706 7131 7133 28
5707 7131 7134 28
5708 7131 7135 28
5709 7136 7137 28
5710 7136 7138 28
5711 7136 7139 28
5712 7136 7140 28
5713 7141 7142 28
5714 7141 7143 28
5715 7141 7144 28
5716 7141 7145 28
5717 7146 7147 28
5718 7146 7148 28
5719 7146 7149 28
5720 7146 7150 28
5721 7151 7152 28
5722 7151 7153 28
5723 7151 7154 28
5724 7151 7155 28
5725 7156 7157 28
5726 7156 7158 28
5727 7156 7159 28
5728 7156 7160 28
5729 7161 7162 28
5730 7161 7163 28
5731 7161 7164 28
5732 7161 7165 28
5733 7166 7167 28
5734 7166 7168 28
5735 7166 7169 28
5736 7166 7170 28
5737 7171 7172 28
5738 7171 7173 28
5739 7171 7174 28
5740 7171 7175 28
5741 7176 7177 28
5742 7176 7178 28
5743 7176 7179 28
5744 7176 7180 28
5745 7181 7182 28
5746 7181 7183 28
5747 7181 7184 28
5748 7181 7185 28
5749 7186 7187 28
5750 7186 7188 28
5751 7186 7189 28
5752 7186 7190 28
5753 7191 7192 28
5754 7191 7193 28
5755 7191 7194 28
5756 7191 7195 28
5757 7196 7197 28
5758 7196 7198 28
5759 7196 7199 28
5760 7196 7200 28
5761 7201 7202 28
5762 7201 7203 28
5763 7201 7204 28
5764 7201 7205 28
5765 7206 7207 28
5766 7206 7208 28
5767 7206 7209 28
5768 7206 7210 28
5769 7211 7212 28
5770 7211 7213 28
5771 7211 7214 28
5772 7211 7215 28
5773 7216 7217 28
5774 7216 7218 28
5775 7216 7219 28
5776 7216 7220 28
5777 7221 7222 28
5778 7221 7223 28
5779 7221 7224 28
5780 7221 7225 28
5781 7226 7227 28
5782 7226 7228 28
5783 7226 7229 28
5784 7226 7230 28
5785 7231 7232 28
5786 7231 7233 28
5787 7231 7234 28
5788 7231 7235 28
5789 7236 7237 28
5790 7236 7238 28
5791 7236 7239 28
5792 7236 7240 28
5793 7241 7242 28
5794 7241 7243 28
5795 7241 7244 28
5796 7241 7245 28
5797 7246 7247 28
5798 7246 7248 28
5799 7246 7249 28
5800 7246 7250 28
5801 7251 7252 28
5802 7251 7253 28
5803 7251 7254 28
5804 7251 7255 28
5805 7256 7257 28
5806 7256 7258 28
5807 7256 7259 28
5808 7256 7260 28
5809 7261 7262 28
5810 7261 7263 28
5811 7261 7264 28
5812 7261 7265 28
5813 7266 7267 28
5814 7266 7268 28
5815 7266 7269 28
5816 7266 7270 28
5817 7271 7272 28
5818 7271 7273 28
5819 7271 7274 28
5820 7271 7275 28
5821 7276 7277 28
5822 7276 7278 28
5823 7276 7279 28
5824 7276 7280 28
5825 7281 7282 28
5826 7281 7283 28
5827 7281 7284 28
5828 7281 7285 28
5829 7286 7287 28
5830 7286 7288 28
5831 7286 7289 28
5832 7286 7290 28
5833 7291 7292 28
5834 7291 7293 28
5835 7291 7294 28
5836 7291 7295 28
5837 7296 7297 28
5838 7296 7298 28
5839 7296 7299 28
5840 7296 7300 28
5841 7301 7302 28
5842 7301 7303 28
5843 7301 7304 28
5844 7301 7305 28
5845 7306 7307 28
5846 7306 7308 28
5847 7306 7309 28
5848 7306 7310 28
5849 7311 7312 28
5850 7311 7313 28
5851 7311 7314 28
5852 7311 7315 28
5853 7316 7317 28
5854 7316 7318 28
5855 7316 7319 28
5856 7316 7320 28
5857 7321 7322 28
5858 7321 7323 28
5859 7321 7324 28
5860 7321 7325 28
5861 7326 7327 28
5862 7326 7328 28
5863 7326 7329 28
5864 7326 7330 28
5865 7331 7332 28
5866 7331 7333 28
5867 7331 7334 28
5868 7331 7335 28
5869 7336 7337 28
5870 7336 7338 28
5871 7336 7339 28
5872 7336 7340 28
5873 7341 7342 28
5874 7341 7343 28
5875 7341 7344 28
5876 7341 7345 28
5877 7346 7347 28
5878 7346 7348 28
5879 7346 7349 28
5880 7346 7350 28
5881 7351 7352 28
5882 7351 7353 28
5883 7351 7354 28
5884 7351 7355 28
5885 7356 7357 28
5886 7356 7358 28
5887 7356 7359 28
5888 7356 7360 28
5889 7361 7362 28
5890 7361 7363 28
5891 7361 7364 28
5892 7361 7365 28
5893 7366 7367 28
5894 7366 7368 28
5895 7366 7369 28
5896 7366 7370 28
5897 7371 7372 28
5898 7371 7373 28
5899 7371 7374 28
5900 7371 7375 28
5901 7376 7377 28
5902 7376 7378 28
5903 7376 7379 28
5904 7376 7380 28
5905 7381 7382 28
5906 7381 7383 28
5907 7381 7384 28
5908 7381 7385 28
5909 7386 7387 28
5910 7386 7388 28
5911 7386 7389 28
5912 7386 7390 28
5913 7391 7392 28
5914 7391 7393 28
5915 7391 7394 28
5916 7391 7395 28
5917 7396 7397 28
5918 7396 7398 28
5919 7396 7399 28
5920 7396 7400 28
5921 7401 7402 28
5922 7401 7403 28
5923 7401 7404 28
5924 7401 7405 28
5925 7406 7407 28
5926 7406 7408 28
5927 7406 7409 28
5928 7406 7410 28
5929 7411 7412 28
5930 7411 7413 28
5931 7411 7414 28
5932 7411 7415 28
5933 7416 7417 28
5934 7416 7418 28
5935 7416 7419 28
5936 7416 7420 28
5937 7421 7422 28
5938 7421 7423 28
5939 7421 7424 28
5940 7421 7425 28
5941 7426 7427 28
5942 7426 7428 28
5943 7426 7429 28
5944 7426 7430 28
5945 7431 7432 28
5946 7431 7433 28
5947 7431 7434 28
5948 7431 7435 28
5949 7436 7437 28
5950 7436 7438 28
5951 7436 7439 28
5952 7436 7440 28
5953 7441 7442 28
5954 7441 7443 28
5955 7441 7444 28
5956 7441 7445 28
5957 7446 7447 28
5958 7446 7448 28
5959 7446 7449 28
5960 7446 7450 28
5961 7451 7452 28
5962 7451 7453 28
5963 7451 7454 28
5964 7451 7455 28
5965 7456 7457 28
5966 7456 7458 28
5967 7456 7459 28
5968 7456 7460 28
5969 7461 7462 28
5970 7461 7463 28
5971 7461 7464 28
5972 7461 7465 28
5973 7466 7467 28
5974 7466 7468 28
5975 7466 7469 28
5976 7466 7470 28
5977 7471 7472 28
5978 7471 7473 28
5979 7471 7474 28
5980 7471 7475 28
5981 7476 7477 28
5982 7476 7478 28
5983 7476 7479 28
5984 7476 7480 28
5985 7481 7482 28
5986 7481 7483 28
5987 7481 7484 28
5988 7481 7485 28
5989 7486 7487 28
5990 7486 7488 28
5991 7486 7489 28
5992 7486 7490 28
5993 7491 7492 28
5994 7491 7493 28
5995 7491 7494 28
5996 7491 7495 28
5997 7496 7497 28
5998 7496 7498 28
5999 7496 7499 28
6000 7496 7500 28
6001 7501 7502 28
6002 7501 7503 28
6003 7501 7504 28
6004 7501 7505 28
6005 7506 7507 28
6006 7506 7508 28
6007 7506 7509 28
6008 7506 7510 28
6009 7511 7512 28
6010 7511 7513 28
6011 7511 7514 28
6012 7511 7515 28
6013 7516 7517 28
6014 7516 7518 28
6015 7516 7519 28
6016 7516 7520 28
6017 7521 7522 28
6018 7521 7523 28
6019 7521 7524 28
6020 7521 7525 28
6021 7526 7527 28
6022 7526 7528 28
6023 7526 7529 28
6024 7526 7530 28
6025 7531 7532 28
6026 7531 7533 28
6027 7531 7534 28
6028 7531 7535 28
6029 7536 7537 28
6030 7536 7538 28
6031 7536 7539 28
6032 7536 7540 28
6033 7541 7542 28
6034 7541 7543 28
6035 7541 7544 28
6036 7541 7545 28
6037 7546 7547 28
6038 7546 7548 28
6039 7546 7549 28
6040 7546 7550 28
6041 7551 7552 28
6042 7551 7553 28
6043 7551 7554 28
6044 7551 7555 28
6045 7556 7557 28
6046 7556 7558 28
6047 7556 7559 28
6048 7556 7560 28
6049 7561 7562 28
6050 7561 7563 28
6051 7561 7564 28
6052 7561 7565 28
6053 7566 7567 28
6054 7566 7568 28
6055 7566 7569 28
6056 7566 7570 28
6057 7571 7572 28
6058 7571 7573 28
6059 7571 7574 28
6060 7571 7575 28
6061 7576 7577 28
6062 7576 7578 28
6063 7576 7579 28
6064 7576 7580 28
6065 7581 7582 28
6066 7581 7583 28
6067 7581 7584 28
6068 7581 7585 28
6069 7586 7587 28
6070 7586 7588 28
6071 7586 7589 28
6072 7586 7590 28
6073 7591 7592 28
6074 7591 7593 28
6075 7591 7594 28
6076 7591 7595 28
6077 7596 7597 28
6078 7596 7598 28
6079 7596 7599 28
6080 7596 7600 28
6081 7601 7602 28
6082 7601 7603 28
6083 7601 7604 28
6084 7601 7605 28
6085 7606 7607 28
6086 7606 7608 28
6087 7606 7609 28
6088 7606 7610 28
6089 7611 7612 28
6090 7611 7613 28
6091 7611 7614 28
6092 7611 7615 28
6093 7616 7617 28
6094 7616 7618 28
6095 7616 7619 28
6096 7616 7620 28
6097 7621 7622 28
6098 7621 7623 28
6099 7621 7624 28
6100 7621 7625 28
6101 7626 7627 28
6102 7626 7628 28
6103 7626 7629 28
6104 7626 7630 28
6105 7631 7632 28
6106 7631 7633 28
6107 7631 7634 28
6108 7631 7635 28
6109 7636 7637 28
6110 7636 7638 28
6111 7636 7639 28
6112 7636 7640 28
6113 7641 7642 28
6114 7641 7643 28
6115 7641 7644 28
6116 7641 7645 28
6117 7646 7647 28
6118 7646 7648 28
6119 7646 7649 28
6120 7646 7650 28
6121 7651 7652 28
6122 7651 7653 28
6123 7651 7654 28
6124 7651 7655 28
6125 7656 7657 28
6126 7656 7658 28
6127 7656 7659 28
6128 7656 7660 28
6129 7661 7662 28
6130 7661 7663 28
6131 7661 7664 28
6132 7661 7665 28
6133 7666 7667 28
6134 7666 7668 28
6135 7666 7669 28
6136 7666 7670 28
6137 7671 7672 28
6138 7671 7673 28
6139 7671 7674 28
6140 7671 7675 28
6141 7676 7677 28
6142 7676 7678 28
6143 7676 7679 28
6144 7676 7680 28
6145 7681 7682 28
6146 7681 7683 28
6147 7681 7684 28
6148 7681 7685 28
6149 7686 7687 28
6150 7686 7688 28
6151 7686 7689 28
6152 7686 7690 28
6153 7691 7692 28
6154 7691 7693 28
6155 7691 7694 28
6156 7691 7695 28
6157 7696 7697 28
6158 7696 7698 28
6159 7696 7699 28
6160 7696 7700 28
6161 7701 7702 28
6162 7701 7703 28
6163 7701 7704 28
6164 7701 7705 28
6165 7706 7707 28
6166 7706 7708 28
6167 7706 7709 28
6168 7706 7710 28
6169 7711 7712 28
6170 7711 7713 28
6171 7711 7714 28
6172 7711 7715 28
6173 7716 7717 28
6174 7716 7718 28
6175 7716 7719 28
6176 7716 7720 28
6177 7721 7722 28
6178 7721 7723 28
6179 7721 7724 28
6180 7721 7725 28
6181 7726 7727 28
6182 7726 7728 28
6183 7726 7729 28
6184 7726 7730 28
6185 7731 7732 28
6186 7731 7733 28
6187 7731 7734 28
6188 7731 7735 28
6189 7736 7737 28
6190 7736 7738 28
6191 7736 7739 28
6192 7736 7740 28
6193 7741 7742 28
6194 7741 7743 28
6195 7741 7744 28
6196 7741 7745 28
6197 7746 7747 28
6198 7746 7748 28
6199 7746 7749 28
6200 7746 7750 28
6201 7751 7752 28
6202 7751 7753 28
6203 7751 7754 28
6204 7751 7755 28
6205 7756 7757 28
6206 7756 7758 28
6207 7756 7759 28
6208 7756 7760 28
6209 7761 7762 28
6210 7761 7763 28
6211 7761 7764 28
6212 7761 7765 28
6213 7766 7767 28
6214 7766 7768 28
6215 7766 7769 28
6216 7766 7770 28
6217 7771 7772 28
6218 7771 7773 28
6219 7771 7774 28
6220 7771 7775 28
6221 7776 7777 28
6222 7776 7778 28
6223 7776 7779 28
6224 7776 7780 28
6225 7781 7782 28
6226 7781 7783 28
6227 7781 7784 28
6228 7781 7785 28
6229 7786 7787 28
6230 7786 7788 28
6231 7786 7789 28
6232 7786 7790 28
6233 7791 7792 28
6234 7791 7793 28
6235 7791 7794 28
6236 7791 7795 28
6237 7796 7797 28
6238 7796 7798 28
6239 7796 7799 28
6240 7796 7800 28
6241 7801 7802 28
6242 7801 7803 28
6243 7801 7804 28
6244 7801 7805 28
6245 7806 7807 28
6246 7806 7808 28
6247 7806 7809 28
6248 7806 7810 28
6249 7811 7812 28
6250 7811 7813 28
6251 7811 7814 28
6252 7811 7815 28
6253 7816 7817 28
6254 7816 7818 28
6255 7816 7819 28
6256 7816 7820 28
6257 7821 7822 28
6258 7821 7823 28
6259 7821 7824 28
6260 7821 7825 28
6261 7826 7827 28
6262 7826 7828 28
6263 7826 7829 28
6264 7826 7830 28
6265 7831 7832 28
6266 7831 7833 28
6267 7831 7834 28
6268 7831 7835 28
6269 7836 7837 28
6270 7836 7838 28
6271 7836 7839 28
6272 7836 7840 28
6273 7841 7842 28
6274 7841 7843 28
6275 7841 7844 28
6276 7841 7845 28
6277 7846 7847 28
6278 7846 7848 28
6279 7846 7849 28
6280 7846 7850 28
6281 7851 7852 28
6282 7851 7853 28
6283 7851 7854 28
6284 7851 7855 28
6285 7856 7857 28
6286 7856 7858 28
6287 7856 7859 28
6288 7856 7860 28
6289 7861 7862 28
6290 7861 7863 28
6291 7861 7864 28
6292 7861 7865 28
6293 7866 7867 28
6294 7866 7868 28
6295 7866 7869 28
6296 7866 7870 28
6297 7871 7872 28
6298 7871 7873 28
6299 7871 7874 28
6300 7871 7875 28
6301 7876 7877 28
6302 7876 7878 28
6303 7876 7879 28
6304 7876 7880 28
6305 7881 7882 28
6306 7881 7883 28
6307 7881 7884 28
6308 7881 7885 28
6309 7886 7887 28
6310 7886 7888 28
6311 7886 7889 28
6312 7886 7890 28
6313 7891 7892 28
6314 7891 7893 28
6315 7891 7894 28
6316 7891 7895 28
6317 7896 7897 28
6318 7896 7898 28
6319 7896 7899 28
6320 7896 7900 28
6321 7901 7902 28
6322 7901 7903 28
6323 7901 7904 28
6324 7901 7905 28
6325 7906 7907 28
6326 7906 7908 28
6327 7906 7909 28
6328 7906 7910 28
6329 7911 7912 28
6330 7911 7913 28
6331 7911 7914 28
6332 7911 7915 28
6333 7916 7917 28
6334 7916 7918 28
6335 7916 7919 28
6336 7916 7920 28
6337 7921 7922 28
6338 7921 7923 28
6339 7921 7924 28
6340 7921 7925 28
6341 7926 7927 28
6342 7926 7928 28
6343 7926 7929 28
6344 7926 7930 28
6345 7931 7932 28
6346 7931 7933 28
6347 7931 7934 28
6348 7931 7935 28
6349 7936 7937 28
6350 7936 7938 28
6351 7936 7939 28
6352 7936 7940 28
6353 7941 7942 28
6354 7941 7943 28
6355 7941 7944 28
6356 7941 7945 28
6357 7946 7947 28
6358 7946 7948 28
6359 7946 7949 28
6360 7946 7950 28
6361 7951 7952 28
6362 7951 7953 28
6363 7951 7954 28
6364 7951 7955 28
6365 7956 7957 28
6366 7956 7958 28
6367 7956 7959 28
6368 7956 7960 28
6369 7961 7962 28
6370 7961 7963 28
6371 7961 7964 28
6372 7961 7965 28
6373 7966 7967 28
6374 7966 7968 28
6375 7966 7969 28
6376 7966 7970 28
6377 7971 7972 28
6378 7971 7973 28
6379 7971 7974 28
6380 7971 7975 28
6381 7976 7977 28
6382 7976 7978 28
6383 7976 7979 28
6384 7976 7980 28
6385 7981 7982 28
6386 7981 7983 28
6387 7981 7984 28
6388 7981 7985 28
6389 7986 7987 28
6390 7986 7988 28
6391 7986 7989 28
6392 7986 7990 28
6393 7991 7992 28
6394 7991 7993 28
6395 7991 7994 28
6396 7991 7995 28
6397 7996 7997 28
6398 7996 7998 28
6399 7996 7999 28
6400 7996 8000 28
6401 8001 8002 28
6402 8001 8003 28
6403 8001 8004 28
6404 8001 8005 28
6405 8006 8007 28
6406 8006 8008 28
6407 8006 8009 28
6408 8006 8010 28
6409 8011 8012 28
6410 8011 8013 28
6411 8011 8014 28
6412 8011 8015 28
6413 8016 8017 28
6414 8016 8018 28
6415 8016 8019 28
6416 8016 8020 28
6417 8021 8022 28
6418 8021 8023 28
6419 8021 8024 28
6420 8021 8025 28
6421 8026 8027 28
6422 8026 8028 28
6423 8026 8029 28
6424 8026 8030 28
6425 8031 8032 28
6426 8031 8033 28
6427 8031 8034 28
6428 8031 8035 28
6429 8036 8037 28
6430 8036 8038 28
6431 8036 8039 28
6432 8036 8040 28
6433 8041 8042 28
6434 8041 8043 28
6435 8041 8044 28
6436 8041 8045 28
6437 8046 8047 28
6438 8046 8048 28
6439 8046 8049 28
6440 8046 8050 28
6441 8051 8052 28
6442 8051 8053 28
6443 8051 8054 28
6444 8051 8055 28
6445 8056 8057 28
6446 8056 8058 28
6447 8056 8059 28
6448 8056 8060 28
6449 8061 8062 28
6450 8061 8063 28
6451 8061 8064 28
6452 8061 8065 28
6453 8066 8067 28
6454 8066 8068 28
6455 8066 8069 28
6456 8066 8070 28
6457 8071 8072 28
6458 8071 8073 28
6459 8071 8074 28
6460 8071 8075 28
6461 8076 8077 28
6462 8076 8078 28
6463 8076 8079 28
6464 8076 8080 28
6465 8081 8082 28
6466 8081 8083 28
6467 8081 8084 28
6468 8081 8085 28
6469 8086 8087 28
6470 8086 8088 28
6471 8086 8089 28
6472 8086 8090 28
6473 8091 8092 28
6474 8091 8093 28
6475 8091 8094 28
6476 8091 8095 28
6477 8096 8097 28
6478 8096 8098 28
6479 8096 8099 28
6480 8096 8100 28
6481 8101 8102 28
6482 8101 8103 28
6483 8101 8104 28
6484 8101 8105 28
6485 8106 8107 28
6486 8106 8108 28
6487 8106 8109 28
6488 8106 8110 28
6489 8111 8112 28
6490 8111 8113 28
6491 8111 8114 28
6492 8111 8115 28
6493 8116 8117 28
6494 8116 8118 28
6495 8116 8119 28
6496 8116 8120 28
6497 8121 8122 28
6498 8121 8123 28
6499 8121 8124 28
6500 8121 8125 28
6501 8126 8127 28
6502 8126 8128 28
6503 8126 8129 28
6504 8126 8130 28
6505 8131 8132 28
6506 8131 8133 28
6507 8131 8134 28
6508 8131 8135 28
6509 8136 8137 28
6510 8136 8138 28
6511 8136 8139 28
6512 8136 8140 28
6513 8141 8142 28
6514 8141 8143 28
6515 8141 8144 28
6516 8141 8145 28
6517 8146 8147 28
6518 8146 8148 28
6519 8146 8149 28
6520 8146 8150 28
6521 8151 8152 28
6522 8151 8153 28
6523 8151 8154 28
6524 8151 8155 28
6525 8156 8157 28
6526 8156 8158 28
6527 8156 8159 28
6528 8156 8160 28
6529 8161 8162 28
6530 8161 8163 28
6531 8161 8164 28
6532 8161 8165 28
6533 8166 8167 28
6534 8166 8168 28
6535 8166 8169 28
6536 8166 8170 28
6537 8171 8172 28
6538 8171 8173 28
6539 8171 8174 28
6540 8171 8175 28
6541 8176 8177 28
6542 8176 8178 28
6543 8176 8179 28
6544 8176 8180 28
6545 8181 8182 28
6546 8181 8183 28
6547 8181 8184 28
6548 8181 8185 28
6549 8186 8187 28
6550 8186 8188 28
6551 8186 8189 28
6552 8186 8190 28
6553 8191 8192 28
6554 8191 8193 28
6555 8191 8194 28
6556 8191 8195 28
6557 8196 8197 28
6558 8196 8198 28
6559 8196 8199 28
6560 8196 8200 28
6561 8201 8202 28
6562 8201 8203 28
6563 8201 8204 28
6564 8201 8205 28
6565 8206 8207 28
6566 8206 8208 28
6567 8206 8209 28
6568 8206 8210 28
6569 8211 8212 28
6570 8211 8213 28
6571 8211 8214 28
6572 8211 8215 28
6573 8216 8217 28
6574 8216 8218 28
6575 8216 8219 28
6576 8216 8220 28
6577 8221 8222 28
6578 8221 8223 28
6579 8221 8224 28
6580 8221 8225 28
6581 8226 8227 28
6582 8226 8228 28
6583 8226 8229 28
6584 8226 8230 28
6585 8231 8232 28
6586 8231 8233 28
6587 8231 8234 28
6588 8231 8235 28
6589 8236 8237 28
6590 8236 8238 28
6591 8236 8239 28
6592 8236 8240 28
6593 8241 8242 28
6594 8241 8243 28
6595 8241 8244 28
6596 8241 8245 28
6597 8246 8247 28
6598 8246 8248 28
6599 8246 8249 28
6600 8246 8250 28
6601 8251 8252 28
6602 8251 8253 28
6603 8251 8254 28
6604 8251 8255 28
6605 8256 8257 28
6606 8256 8258 28
6607 8256 8259 28
6608 8256 8260 28
6609 8261 8262 28
6610 8261 8263 28
6611 8261 8264 28
6612 8261 8265 28
6613 8266 8267 28
6614 8266 8268 28
6615 8266 8269 28
6616 8266 8270 28
6617 8271 8272 28
6618 8271 8273 28
6619 8271 8274 28
6620 8271 8275 28
6621 8276 8277 28
6622 8276 8278 28
6623 8276 8279 28
6624 8276 8280 28
6625 8281 8282 28
6626 8281 8283 28
6627 8281 8284 28
6628 8281 8285 28
6629 8286 8287 28
6630 8286 8288 28
6631 8286 8289 28
6632 8286 8290 28
6633 8291 8292 28
6634 8291 8293 28
6635 8291 8294 28
6636 8291 8295 28
6637 8296 8297 28
6638 8296 8298 28
6639 8296 8299 28
6640 8296 8300 28
6641 8301 8302 28
6642 8301 8303 28
6643 8301 8304 28
6644 8301 8305 28
6645 8306 8307 28
6646 8306 8308 28
6647 8306 8309 28
6648 8306 8310 28
6649 8311 8312 28
6650 8311 8313 28
6651 8311 8314 28
6652 8311 8315 28
6653 8316 8317 28
6654 8316 8318 28
6655 8316 8319 28
6656 8316 8320 28
6657 8321 8322 28
6658 8321 8323 28
6659 8321 8324 28
6660 8321 8325 28
6661 8326 8327 28
6662 8326 8328 28
6663 8326 8329 28
6664 8326 8330 28
6665 8331 8332 28
6666 8331 8333 28
6667 8331 8334 28
6668 8331 8335 28
6669 8336 8337 28
6670 8336 8338 28
6671 8336 8339 28
6672 8336 8340 28
6673 8341 8342 28
6674 8341 8343 28
6675 8341 8344 28
6676 8341 8345 28
6677 8346 8347 28
6678 8346 8348 28
6679 8346 8349 28
6680 8346 8350 28
6681 8351 8352 28
6682 8351 8353 28
6683 8351 8354 28
6684 8351 8355 28
6685 8356 8357 28
6686 8356 8358 28
6687 8356 8359 28
6688 8356 8360 28
6689 8361 8362 28
6690 8361 8363 28
6691 8361 8364 28
6692 8361 8365 28
6693 8366 8367 28
6694 8366 8368 28
6695 8366 8369 28
6696 8366 8370 28
6697 8371 8372 28
6698 8371 8373 28
6699 8371 8374 28
6700 8371 8375 28
6701 8376 8377 28
6702 8376 8378 28
6703 8376 8379 28
6704 8376 8380 28
6705 8381 8382 28
6706 8381 8383 28
6707 8381 8384 28
6708 8381 8385 28
6709 8386 8387 28
6710 8386 8388 28
6711 8386 8389 28
6712 8386 8390 28
6713 8391 8392 28
6714 8391 8393 28
6715 8391 8394 28
6716 8391 8395 28
6717 8396 8397 28
6718 8396 8398 28
6719 8396 8399 28
6720 8396 8400 28
6721 8401 8402 28
6722 8401 8403 28
6723 8401 8404 28
6724 8401 8405 28
6725 8406 8407 28
6726 8406 8408 28
6727 8406 8409 28
6728 8406 8410 28
6729 8411 8412 28
6730 8411 8413 28
6731 8411 8414 28
6732 8411 8415 28
6733 8416 8417 28
6734 8416 8418 28
6735 8416 8419 28
6736 8416 8420 28
6737 8421 8422 28
6738 8421 8423 28
6739 8421 8424 28
6740 8421 8425 28
6741 8426 8427 28
6742 8426 8428 28
6743 8426 8429 28
6744 8426 8430 28
6745 8431 8432 28
6746 8431 8433 28
6747 8431 8434 28
6748 8431 8435 28
6749 8436 8437 28
6750 8436 8438 28
6751 8436 8439 28
6752 8436 8440 28
6753 8441 8442 28
6754 8441 8443 28
6755 8441 8444 28
6756 8441 8445 28
6757 8446 8447 28
6758 8446 8448 28
6759 8446 8449 28
6760 8446 8450 28
6761 8451 8452 28
6762 8451 8453 28
6763 8451 8454 28
6764 8451 8455 28
6765 8456 8457 28
6766 8456 8458 28
6767 8456 8459 28
6768 8456 8460 28
6769 8461 8462 28
6770 8461 8463 28
6771 8461 8464 28
6772 8461 8465 28
6773 8466 8467 28
6774 8466 8468 28
6775 8466 8469 28
6776 8466 8470 28
6777 8471 8472 28
6778 8471 8473 28
6779 8471 8474 28
6780 8471 8475 28
6781 8476 8477 28
6782 8476 8478 28
6783 8476 8479 28
6784 8476 8480 28
6785 8481 8482 28
6786 8481 8483 28
6787 8481 8484 28
6788 8481 8485 28
6789 8486 8487 28
6790 8486 8488 28
6791 8486 8489 28
6792 8486 8490 28
6793 8491 8492 28
6794 8491 8493 28
6795 8491 8494 28
6796 8491 8495 28
6797 8496 8497 28
6798 8496 8498 28
6799 8496 8499 28
6800 8496 8500 28
6801 8501 8502 28
6802 8501 8503 28
6803 8501 8504 28
6804 8501 8505 28
6805 8506 8507 28
6806 8506 8508 28
6807 8506 8509 28
6808 8506 8510 28
6809 8511 8512 28
6810 8511 8513 28
6811 8511 8514 28
6812 8511 8515 28
6813 8516 8517 28
6814 8516 8518 28
6815 8516 8519 28
6816 8516 8520 28
6817 8521 8522 28
6818 8521 8523 28
6819 8521 8524 28
6820 8521 8525 28
6821 8526 8527 28
6822 8526 8528 28
6823 8526 8529 28
6824 8526 8530 28
6825 8531 8532 28
6826 8531 8533 28
6827 8531 8534 28
6828 8531 8535 28
6829 8536 8537 28
6830 8536 8538 28
6831 8536 8539 28
6832 8536 8540 28
6833 8541 8542 28
6834 8541 8543 28
6835 8541 8544 28
6836 8541 8545 28
6837 8546 8547 28
6838 8546 8548 28
6839 8546 8549 28
6840 8546 8550 28
6841 8551 8552 28
6842 8551 8553 28
6843 8551 8554 28
6844 8551 8555 28
6845 8556 8557 28
6846 8556 8558 28
6847 8556 8559 28
6848 8556 8560 28
6849 8561 8562 28
6850 8561 8563 28
6851 8561 8564 28
6852 8561 8565 28
6853 8566 8567 28
6854 8566 8568 28
6855 8566 8569 28
6856 8566 8570 28
6857 8571 8572 28
6858 8571 8573 28
6859 8571 8574 28
6860 8571 8575 28
6861 8576 8577 28
6862 8576 8578 28
6863 8576 8579 28
6864 8576 8580 28
6865 8581 8582 28
6866 8581 8583 28
6867 8581 8584 28
6868 8581 8585 28
6869 8586 8587 28
6870 8586 8588 28
6871 8586 8589 28
6872 8586 8590 28
6873 8591 8592 28
6874 8591 8593 28
6875 8591 8594 28
6876 8591 8595 28
6877 8596 8597 28
6878 8596 8598 28
6879 8596 8599 28
6880 8596 8600 28
6881 8601 8602 28
6882 8601 8603 28
6883 8601 8604 28
6884 8601 8605 28
6885 8606 8607 28
6886 8606 8608 28
6887 8606 8609 28
6888 8606 8610 28
6889 8611 8612 28
6890 8611 8613 28
6891 8611 8614 28
6892 8611 8615 28
6893 8616 8617 28
6894 8616 8618 28
6895 8616 8619 28
6896 8616 8620 28
6897 8621 8622 28
6898 8621 8623 28
6899 8621 8624 28
6900 8621 8625 28
6901 8626 8627 28
6902 8626 8628 28
6903 8626 8629 28
6904 8626 8630 28
6905 8631 8632 28
6906 8631 8633 28
6907 8631 8634 28
6908 8631 8635 28
6909 8636 8637 28
6910 8636 8638 28
6911 8636 8639 28
6912 8636 8640 28
6913 8641 8642 28
6914 8641 8643 28
6915 8641 8644 28
6916 8641 8645 28
6917 8646 8647 28
6918 8646 8648 28
6919 8646 8649 28
6920 8646 8650 28
6921 8651 8652 28
6922 8651 8653 28
6923 8651 8654 28
6924 8651 8655 28
6925 8656 8657 28
6926 8656 8658 28
6927 8656 8659 28
6928 8656 8660 28
6929 8661 8662 28
6930 8661 8663 28
6931 8661 8664 28
6932 8661 8665 28
6933 8666 8667 28
6934 8666 8668 28
6935 8666 8669 28
6936 8666 8670 28
6937 8671 8672 28
6938 8671 8673 28
6939 8671 8674 28
6940 8671 8675 28
6941 8676 8677 28
6942 8676 8678 28
6943 8676 8679 28
6944 8676 8680 28
6945 8681 8682 28
6946 8681 8683 28
6947 8681 8684 28
6948 8681 8685 28
6949 8686 8687 28
6950 8686 8688 28
6951 8686 8689 28
6952 8686 8690 28
6953 8691 8692 28
6954 8691 8693 28
6955 8691 8694 28
6956 8691 8695 28
6957 8696 8697 28
6958 8696 8698 28
6959 8696 8699 28
6960 8696 8700 28
6961 8701 8702 28
6962 8701 8703 28
6963 8701 8704 28
6964 8701 8705 28
6965 8706 8707 28
6966 8706 8708 28
6967 8706 8709 28
6968 8706 8710 28
6969 8711 8712 28
6970 8711 8713 28
6971 8711 8714 28
6972 8711 8715 28
6973 8716 8717 28
6974 8716 8718 28
6975 8716 8719 28
6976 8716 8720 28
6977 8721 8722 28
6978 8721 8723 28
6979 8721 8724 28
6980 8721 8725 28
6981 8726 8727 28
6982 8726 8728 28
6983 8726 8729 28
6984 8726 8730 28
6985 8731 8732 28
6986 8731 8733 28
6987 8731 8734 28
6988 8731 8735 28
6989 8736 8737 28
6990 8736 8738 28
6991 8736 8739 28
6992 8736 8740 28
6993 8741 8742 28
6994 8741 8743 28
6995 8741 8744 28
6996 8741 8745 28
6997 8746 8747 28
6998 8746 8748 28
6999 8746 8749 28
7000 8746 8750 28
7001 8751 8752 28
7002 8751 8753 28
7003 8751 8754 28
7004 8751 8755 28
7005 8756 8757 28
7006 8756 8758 28
7007 8756 8759 28
7008 8756 8760 28
7009 8761 8762 28
7010 8761 8763 28
7011 8761 8764 28
7012 8761 8765 28
7013 8766 8767 28
7014 8766 8768 28
7015 8766 8769 28
7016 8766 8770 28
7017 8771 8772 28
7018 8771 8773 28
7019 8771 8774 28
7020 8771 8775 28
7021 8776 8777 28
7022 8776 8778 28
7023 8776 8779 28
7024 8776 8780 28
7025 8781 8782 28
7026 8781 8783 28
7027 8781 8784 28
7028 8781 8785 28
7029 8786 8787 28
7030 8786 8788 28
7031 8786 8789 28
7032 8786 8790 28
7033 8791 8792 28
7034 8791 8793 28
7035 8791 8794 28
7036 8791 8795 28
7037 8796 8797 28
7038 8796 8798 28
7039 8796 8799 28
7040 8796 8800 28
7041 8801 8802 28
7042 8801 8803 28
7043 8801 8804 28
7044 8801 8805 28
7045 8806 8807 28
7046 8806 8808 28
7047 8806 8809 28
7048 8806 8810 28
7049 8811 8812 28
7050 8811 8813 28
7051 8811 8814 28
7052 8811 8815 28
7053 8816 8817 28
7054 8816 8818 28
7055 8816 8819 28
7056 8816 8820 28
7057 8821 8822 28
7058 8821 8823 28
7059 8821 8824 28
7060 8821 8825 28
7061 8826 8827 28
7062 8826 8828 28
7063 8826 8829 28
7064 8826 8830 28
7065 8831 8832 28
7066 8831 8833 28
7067 8831 8834 28
7068 8831 8835 28
7069 8836 8837 28
7070 8836 8838 28
7071 8836 8839 28
7072 8836 8840 28
7073 8841 8842 28
7074 8841 8843 28
7075 8841 8844 28
7076 8841 8845 28
7077 8846 8847 28
7078 8846 8848 28
7079 8846 8849 28
7080 8846 8850 28
7081 8851 8852 28
7082 8851 8853 28
7083 8851 8854 28
7084 8851 8855 28
7085 8856 8857 28
7086 8856 8858 28
7087 8856 8859 28
7088 8856 8860 28
7089 8861 8862 28
7090 8861 8863 28
7091 8861 8864 28
7092 8861 8865 28
7093 8866 8867 28
7094 8866 8868 28
7095 8866 8869 28
7096 8866 8870 28
7097 8871 8872 28
7098 8871 8873 28
7099 8871 8874 28
7100 8871 8875 28
7101 8876 8877 28
7102 8876 8878 28
7103 8876 8879 28
7104 8876 8880 28
7105 8881 8882 28
7106 8881 8883 28
7107 8881 8884 28
7108 8881 8885 28
7109 8886 8887 28
7110 8886 8888 28
7111 8886 8889 28
7112 8886 8890 28
7113 8891 8892 28
7114 8891 8893 28
7115 8891 8894 28
7116 8891 8895 28
7117 8896 8897 28
7118 8896 8898 28
7119 8896 8899 28
7120 8896 8900 28
7121 8901 8902 28
7122 8901 8903 28
7123 8901 8904 28
7124 8901 8905 28
7125 8906 8907 28
7126 8906 8908 28
7127 8906 8909 28
7128 8906 8910 28
7129 8911 8912 28
7130 8911 8913 28
7131 8911 8914 28
7132 8911 8915 28
7133 8916 8917 28
7134 8916 8918 28
7135 8916 8919 28
7136 8916 8920 28
7137 8921 8922 28
7138 8921 8923 28
7139 8921 8924 28
7140 8921 8925 28
7141 8926 8927 28
7142 8926 8928 28
7143 8926 8929 28
7144 8926 8930 28
7145 8931 8932 28
7146 8931 8933 28
7147 8931 8934 28
7148 8931 8935 28
7149 8936 8937 28
7150 8936 8938 28
7151 8936 8939 28
7152 8936 8940 28
7153 8941 8942 28
7154 8941 8943 28
7155 8941 8944 28
7156 8941 8945 28
7157 8946 8947 28
7158 8946 8948 28
7159 8946 8949 28
7160 8946 8950 28
7161 8951 8952 28
7162 8951 8953 28
7163 8951 8954 28
7164 8951 8955 28
7165 8956 8957 28
7166 8956 8958 28
7167 8956 8959 28
7168 8956 8960 28
7169 8961 8962 28
7170 8961 8963 28
7171 8961 8964 28
7172 8961 8965 28
7173 8966 8967 28
7174 8966 8968 28
7175 8966 8969 28
7176 8966 8970 28
7177 8971 8972 28
7178 8971 8973 28
7179 8971 8974 28
7180 8971 8975 28
7181 8976 8977 28
7182 8976 8978 28
7183 8976 8979 28
7184 8976 8980 28
7185 8981 8982 28
7186 8981 8983 28
7187 8981 8984 28
7188 8981 8985 28
7189 8986 8987 28
7190 8986 8988 28
7191 8986 8989 28
7192 8986 8990 28
7193 8991 8992 28
7194 8991 8993 28
7195 8991 8994 28
7196 8991 8995 28
7197 8996 8997 28
7198 8996 8998 28
7199 8996 8999 28
7200 8996 9000 28
7201 9001 9002 28
7202 9001 9003 28
7203 9001 9004 28
7204 9001 9005 28
7205 9006 9007 28
7206 9006 9008 28
7207 9006 9009 28
7208 9006 9010 28
7209 9011 9012 28
7210 9011 9013 28
7211 9011 9014 28
7212 9011 9015 28
7213 9016 9017 28
7214 9016 9018 28
7215 9016 9019 28
7216 9016 9020 28
7217 9021 9022 28
7218 9021 9023 28
7219 9021 9024 28
7220 9021 9025 28
7221 9026 9027 28
7222 9026 9028 28
7223 9026 9029 28
7224 9026 9030 28
7225 9031 9032 28
7226 9031 9033 28
7227 9031 9034 28
7228 9031 9035 28
7229 9036 9037 28
7230 9036 9038 28
7231 9036 9039 28
7232 9036 9040 28
7233 9041 9042 28
7234 9041 9043 28
7235 9041 9044 28
7236 9041 9045 28
7237 9046 9047 28
7238 9046 9048 28
7239 9046 9049 28
7240 9046 9050 28
7241 9051 9052 28
7242 9051 9053 28
7243 9051 9054 28
7244 9051 9055 28
7245 9056 9057 28
7246 9056 9058 28
7247 9056 9059 28
7248 9056 9060 28
7249 9061 9062 28
7250 9061 9063 28
7251 9061 9064 28
7252 9061 9065 28
7253 9066 9067 28
7254 9066 9068 28
7255 9066 9069 28
7256 9066 9070 28
7257 9071 9072 28
7258 9071 9073 28
7259 9071 9074 28
7260 9071 9075 28
7261 9076 9077 28
7262 9076 9078 28
7263 9076 9079 28
7264 9076 9080 28
7265 9081 9082 28
7266 9081 9083 28
7267 9081 9084 28
7268 9081 9085 28
7269 9086 9087 28
7270 9086 9088 28
7271 9086 9089 28
7272 9086 9090 28
7273 9091 9092 28
7274 9091 9093 28
7275 9091 9094 28
7276 9091 9095 28
7277 9096 9097 28
7278 9096 9098 28
7279 9096 9099 28
7280 9096 9100 28
7281 9101 9102 28
7282 9101 9103 28
7283 9101 9104 28
7284 9101 9105 28
7285 9106 9107 28
7286 9106 9108 28
7287 9106 9109 28
7288 9106 9110 28
7289 9111 9112 28
7290 9111 9113 28
7291 9111 9114 28
7292 9111 9115 28
7293 9116 9117 28
7294 9116 9118 28
7295 9116 9119 28
7296 9116 9120 28
7297 9121 9122 28
7298 9121 9123 28
7299 9121 9124 28
7300 9121 9125 28
7301 9126 9127 28
7302 9126 9128 28
7303 9126 9129 28
7304 9126 9130 28
7305 9131 9132 28
7306 9131 9133 28
7307 9131 9134 28
7308 9131 9135 28
7309 9136 9137 28
7310 9136 9138 28
7311 9136 9139 28
7312 9136 9140 28
7313 9141 9142 28
7314 9141 9143 28
7315 9141 9144 28
7316 9141 9145 28
7317 9146 9147 28
7318 9146 9148 28
7319 9146 9149 28
7320 9146 9150 28
7321 9151 9152 28
7322 9151 9153 28
7323 9151 9154 28
7324 9151 9155 28
7325 9156 9157 28
7326 9156 9158 28
7327 9156 9159 28
7328 9156 9160 28
7329 9161 9162 28
7330 9161 9163 28
7331 9161 9164 28
7332 9161 9165 28
7333 9166 9167 28
7334 9166 9168 28
7335 9166 9169 28
7336 9166 9170 28
7337 9171 9172 28
7338 9171 9173 28
7339 9171 9174 28
7340 9171 9175 28
7341 9176 9177 28
7342 9176 9178 28
7343 9176 9179 28
7344 9176 9180 28
7345 9181 9182 28
7346 9181 9183 28
7347 9181 9184 28
7348 9181 9185 28
7349 9186 9187 28
7350 9186 9188 28
7351 9186 9189 28
7352 9186 9190 28
7353 9191 9192 28
7354 9191 9193 28
7355 9191 9194 28
7356 9191 9195 28
7357 9196 9197 28
7358 9196 9198 28
7359 9196 9199 28
7360 9196 9200 28
7361 9201 9202 28
7362 9201 9203 28
7363 9201 9204 28
7364 9201 9205 28
7365 9206 9207 28
7366 9206 9208 28
7367 9206 9209 28
7368 9206 9210 28
7369 9211 9212 28
7370 9211 9213 28
7371 9211 9214 28
7372 9211 9215 28
7373 9216 9217 28
7374 9216 9218 28
7375 9216 9219 28
7376 9216 9220 28
7377 9221 9222 28
7378 9221 9223 28
7379 9221 9224 28
7380 9221 9225 28
7381 9226 9227 28
7382 9226 9228 28
7383 9226 9229 28
7384 9226 9230 28
7385 9231 9232 28
7386 9231 9233 28
7387 9231 9234 28
7388 9231 9235 28
7389 9236 9237 28
7390 9236 9238 28
7391 9236 9239 28
7392 9236 9240 28
7393 9241 9242 28
7394 9241 9243 28
7395 9241 9244 28
7396 9241 9245 28
7397 9246 9247 28
7398 9246 9248 28
7399 9246 9249 28
7400 9246 9250 28
7401 9251 9252 28
7402 9251 9253 28
7403 9251 9254 28
7404 9251 9255 28
7405 9256 9257 28
7406 9256 9258 28
7407 9256 9259 28
7408 9256 9260 28
7409 9261 9262 28
7410 9261 9263 28
7411 9261 9264 28
7412 9261 9265 28
7413 9266 9267 28
7414 9266 9268 28
7415 9266 9269 28
7416 9266 9270 28
7417 9271 9272 28
7418 9271 9273 28
7419 9271 9274 28
7420 9271 9275 28
7421 9276 9277 28
7422 9276 9278 28
7423 9276 9279 28
7424 9276 9280 28
7425 9281 9282 28
7426 9281 9283 28
7427 9281 9284 28
7428 9281 9285 28
7429 9286 9287 28
7430 9286 9288 28
7431 9286 9289 28
7432 9286 9290 28
7433 9291 9292 28
7434 9291 9293 28
7435 9291 9294 28
7436 9291 9295 28
7437 9296 9297 28
7438 9296 9298 28
7439 9296 9299 28
7440 9296 9300 28
7441 9301 9302 28
7442 9301 9303 28
7443 9301 9304 28
7444 9301 9305 28
7445 9306 9307 28
7446 9306 9308 28
7447 9306 9309 28
7448 9306 9310 28
7449 9311 9312 28
7450 9311 9313 28
7451 9311 9314 28
7452 9311 9315 28
7453 9316 9317 28
7454 9316 9318 28
7455 9316 9319 28
7456 9316 9320 28
7457 9321 9322 28
7458 9321 9323 28
7459 9321 9324 28
7460 9321 9325 28
7461 9326 9327 28
7462 9326 9328 28
7463 9326 9329 28
7464 9326 9330 28
7465 9331 9332 28
7466 9331 9333 28
7467 9331 9334 28
7468 9331 9335 28
7469 9336 9337 28
7470 9336 9338 28
7471 9336 9339 28
7472 9336 9340 28
7473 9341 9342 28
7474 9341 9343 28
7475 9341 9344 28
7476 9341 9345 28
7477 9346 9347 28
7478 9346 9348 28
7479 9346 9349 28
7480 9346 9350 28
7481 9351 9352 28
7482 9351 9353 28
7483 9351 9354 28
7484 9351 9355 28
7485 9356 9357 28
7486 9356 9358 28
7487 9356 9359 28
7488 9356 9360 28
7489 9361 9362 28
7490 9361 9363 28
7491 9361 9364 28
7492 9361 9365 28
7493 9366 9367 28
7494 9366 9368 28
7495 9366 9369 28
7496 9366 9370 28
7497 9371 9372 28
7498 9371 9373 28
7499 9371 9374 28
7500 9371 9375 28
7501 9376 9377 28
7502 9376 9378 28
7503 9376 9379 28
7504 9376 9380 28
7505 9381 9382 28
7506 9381 9383 28
7507 9381 9384 28
7508 9381 9385 28
7509 9386 9387 28
7510 9386 9388 28
7511 9386 9389 28
7512 9386 9390 28
7513 9391 9392 28
7514 9391 9393 28
7515 9391 9394 28
7516 9391 9395 28
7517 9396 9397 28
7518 9396 9398 28
7519 9396 9399 28
7520 9396 9400 28
7521 9401 9402 28
7522 9401 9403 28
7523 9401 9404 28
7524 9401 9405 28
7525 9406 9407 28
7526 9406 9408 28
7527 9406 9409 28
7528 9406 9410 28
7529 9411 9412 28
7530 9411 9413 28
7531 9411 9414 28
7532 9411 9415 28
7533 9416 9417 28
7534 9416 9418 28
7535 9416 9419 28
7536 9416 9420 28
7537 9421 9422 28
7538 9421 9423 28
7539 9421 9424 28
7540 9421 9425 28
7541 9426 9427 28
7542 9426 9428 28
7543 9426 9429 28
7544 9426 9430 28
7545 9431 9432 28
7546 9431 9433 28
7547 9431 9434 28
7548 9431 9435 28
7549 9436 9437 28
7550 9436 9438 28
7551 9436 9439 28
7552 9436 9440 28
7553 9441 9442 28
7554 9441 9443 28
7555 9441 9444 28
7556 9441 9445 28
7557 9446 9447 28
7558 9446 9448 28
7559 9446 9449 28
7560 9446 9450 28
7561 9451 9452 28
7562 9451 9453 28
7563 9451 9454 28
7564 9451 9455 28
7565 9456 9457 28
7566 9456 9458 28
7567 9456 9459 28
7568 9456 9460 28
7569 9461 9462 28
7570 9461 9463 28
7571 9461 9464 28
7572 9461 9465 28
7573 9466 9467 28
7574 9466 9468 28
7575 9466 9469 28
7576 9466 9470 28
7577 9471 9472 28
7578 9471 9473 28
7579 9471 9474 28
7580 9471 9475 28
7581 9476 9477 28
7582 9476 9478 28
7583 9476 9479 28
7584 9476 9480 28
7585 9481 9482 28
7586 9481 9483 28
7587 9481 9484 28
7588 9481 9485 28
7589 9486 9487 28
7590 9486 9488 28
7591 9486 9489 28
7592 9486 9490 28
7593 9491 9492 28
7594 9491 9493 28
7595 9491 9494 28
7596 9491 9495 28
7597 9496 9497 28
7598 9496 9498 28
7599 9496 9499 28
7600 9496 9500 28
7601 9501 9502 28
7602 9501 9503 28
7603 9501 9504 28
7604 9501 9505 28
7605 9506 9507 28
7606 9506 9508 28
7607 9506 9509 28
7608 9506 9510 28
7609 9511 9512 28
7610 9511 9513 28
7611 9511 9514 28
7612 9511 9515 28
7613 9516 9517 28
7614 9516 9518 28
7615 9516 9519 28
7616 9516 9520 28
7617 9521 9522 28
7618 9521 9523 28
7619 9521 9524 28
7620 9521 9525 28
7621 9526 9527 28
7622 9526 9528 28
7623 9526 9529 28
7624 9526 9530 28
7625 9531 9532 28
7626 9531 9533 28
7627 9531 9534 28
7628 9531 9535 28
7629 9536 9537 28
7630 9536 9538 28
7631 9536 9539 28
7632 9536 9540 28
7633 9541 9542 28
7634 9541 9543 28
7635 9541 9544 28
7636 9541 9545 28
7637 9546 9547 28
7638 9546 9548 28
7639 9546 9549 28
7640 9546 9550 28
7641 9551 9552 28
7642 9551 9553 28
7643 9551 9554 28
7644 9551 9555 28
7645 9556 9557 28
7646 9556 9558 28
7647 9556 9559 28
7648 9556 9560 28
7649 9561 9562 28
7650 9561 9563 28
7651 9561 9564 28
7652 9561 9565 28
7653 9566 9567 28
7654 9566 9568 28
7655 9566 9569 28
7656 9566 9570 28
7657 9571 9572 28
7658 9571 9573 28
7659 9571 9574 28
7660 9571 9575 28
7661 9576 9577 28
7662 9576 9578 28
7663 9576 9579 28
7664 9576 9580 28
7665 9581 9582 28
7666 9581 9583 28
7667 9581 9584 28
7668 9581 9585 28
7669 9586 9587 28
7670 9586 9588 28
7671 9586 9589 28
7672 9586 9590 28
7673 9591 9592 28
7674 9591 9593 28
7675 9591 9594 28
7676 9591 9595 28
7677 9596 9597 28
7678 9596 9598 28
7679 9596 9599 28
7680 9596 9600 28
7681 9601 9602 28
7682 9601 9603 28
7683 9601 9604 28
7684 9601 9605 28
7685 9606 9607 28
7686 9606 9608 28
7687 9606 9609 28
7688 9606 9610 28
7689 9611 9612 28
7690 9611 9613 28
7691 9611 9614 28
7692 9611 9615 28
7693 9616 9617 28
7694 9616 9618 28
7695 9616 9619 28
7696 9616 9620 28
7697 9621 9622 28
7698 9621 9623 28
7699 9621 9624 28
7700 9621 9625 28
7701 9626 9627 28
7702 9626 9628 28
7703 9626 9629 28
7704 9626 9630 28
7705 9631 9632 28
7706 9631 9633 28
7707 9631 9634 28
7708 9631 9635 28
7709 9636 9637 28
7710 9636 9638 28
7711 9636 9639 28
7712 9636 9640 28
7713 9641 9642 28
7714 9641 9643 28
7715 9641 9644 28
7716 9641 9645 28
7717 9646 9647 28
7718 9646 9648 28
7719 9646 9649 28
7720 9646 9650 28
7721 9651 9652 28
7722 9651 9653 28
7723 9651 9654 28
7724 9651 9655 28
7725 9656 9657 28
7726 9656 9658 28
7727 9656 9659 28
7728 9656 9660 28
7729 9661 9662 28
7730 9661 9663 28
7731 9661 9664 28
7732 9661 9665 28
7733 9666 9667 28
7734 9666 9668 28
7735 9666 9669 28
7736 9666 9670 28
7737 9671 9672 28
7738 9671 9673 28
7739 9671 9674 28
7740 9671 9675 28
7741 9676 9677 28
7742 9676 9678 28
7743 9676 9679 28
7744 9676 9680 28
7745 9681 9682 28
7746 9681 9683 28
7747 9681 9684 28
7748 9681 9685 28
7749 9686 9687 28
7750 9686 9688 28
7751 9686 9689 28
7752 9686 9690 28
7753 9691 9692 28
7754 9691 9693 28
7755 9691 9694 28
7756 9691 9695 28
7757 9696 9697 28
7758 9696 9698 28
7759 9696 9699 28
7760 9696 9700 28
7761 9701 9702 28
7762 9701 9703 28
7763 9701 9704 28
7764 9701 9705 28
7765 9706 9707 28
7766 9706 9708 28
7767 9706 9709 28
7768 9706 9710 28
7769 9711 9712 28
7770 9711 9713 28
7771 9711 9714 28
7772 9711 9715 28
7773 9716 9717 28
7774 9716 9718 28
7775 9716 9719 28
7776 9716 9720 28
7777 9721 9722 28
7778 9721 9723 28
7779 9721 9724 28
7780 9721 9725 28
7781 9726 9727 28
7782 9726 9728 28
7783 9726 9729 28
7784 9726 9730 28
7785 9731 9732 28
7786 9731 9733 28
7787 9731 9734 28
7788 9731 9735 28
7789 9736 9737 28
7790 9736 9738 28
7791 9736 9739 28
7792 9736 9740 28
7793 9741 9742 28
7794 9741 9743 28
7795 9741 9744 28
7796 9741 9745 28
7797 9746 9747 28
7798 9746 9748 28
7799 9746 9749 28
7800 9746 9750 28
7801 9751 9752 28
7802 9751 9753 28
7803 9751 9754 28
7804 9751 9755 28
7805 9756 9757 28
7806 9756 9758 28
7807 9756 9759 28
7808 9756 9760 28
7809 9761 9762 28
7810 9761 9763 28
7811 9761 9764 28
7812 9761 9765 28
7813 9766 9767 28
7814 9766 9768 28
7815 9766 9769 28
7816 9766 9770 28
7817 9771 9772 28
7818 9771 9773 28
7819 9771 9774 28
7820 9771 9775 28
7821 9776 9777 28
7822 9776 9778 28
7823 9776 9779 28
7824 9776 9780 28
7825 9781 9782 28
7826 9781 9783 28
7827 9781 9784 28
7828 9781 9785 28
7829 9786 9787 28
7830 9786 9788 28
7831 9786 9789 28
7832 9786 9790 28
7833 9791 9792 28
7834 9791 9793 28
7835 9791 9794 28
7836 9791 9795 28
7837 9796 9797 28
7838 9796 9798 28
7839 9796 9799 28
7840 9796 9800 28
7841 9801 9802 28
7842 9801 9803 28
7843 9801 9804 28
7844 9801 9805 28
7845 9806 9807 28
7846 9806 9808 28
7847 9806 9809 28
7848 9806 9810 28
7849 9811 9812 28
7850 9811 9813 28
7851 9811 9814 28
7852 9811 9815 28
7853 9816 9817 28
7854 9816 9818 28
7855 9816 9819 28
7856 9816 9820 28
7857 9821 9822 28
7858 9821 9823 28
7859 9821 9824 28
7860 9821 9825 28
7861 9826 9827 28
7862 9826 9828 28
7863 9826 9829 28
7864 9826 9830 28
7865 9831 9832 28
7866 9831 9833 28
7867 9831 9834 28
7868 9831 9835 28
7869 9836 9837 28
7870 9836 9838 28
7871 9836 9839 28
7872 9836 9840 28
7873 9841 9842 28
7874 9841 9843 28
7875 9841 9844 28
7876 9841 9845 28
7877 9846 9847 28
7878 9846 9848 28
7879 9846 9849 28
7880 9846 9850 28
7881 9851 9852 28
7882 9851 9853 28
7883 9851 9854 28
7884 9851 9855 28
7885 9856 9857 28
7886 9856 9858 28
7887 9856 9859 28
7888 9856 9860 28
7889 9861 9862 28
7890 9861 9863 28
7891 9861 9864 28
7892 9861 9865 28
7893 9866 9867 28
7894 9866 9868 28
7895 9866 9869 28
7896 9866 9870 28
7897 9871 9872 28
7898 9871 9873 28
7899 9871 9874 28
7900 9871 9875 28
7901 9876 9877 28
7902 9876 9878 28
7903 9876 9879 28
7904 9876 9880 28
7905 9881 9882 28
7906 9881 9883 28
7907 9881 9884 28
7908 9881 9885 28
7909 9886 9887 28
7910 9886 9888 28
7911 9886 9889 28
7912 9886 9890 28
7913 9891 9892 28
7914 9891 9893 28
7915 9891 9894 28
7916 9891 9895 28
7917 9896 9897 28
7918 9896 9898 28
7919 9896 9899 28
7920 9896 9900 28
7921 9901 9902 28
7922 9901 9903 28
7923 9901 9904 28
7924 9901 9905 28
7925 9906 9907 28
7926 9906 9908 28
7927 9906 9909 28
7928 9906 9910 28
7929 9911 9912 28
7930 9911 9913 28
7931 9911 9914 28
7932 9911 9915 28
7933 9916 9917 28
7934 9916 9918 28
7935 9916 9919 28
7936 9916 9920 28
7937 9921 9922 28
7938 9921 9923 28
7939 9921 9924 28
7940 9921 9925 28
7941 9926 9927 28
7942 9926 9928 28
7943 9926 9929 28
7944 9926 9930 28
7945 9931 9932 28
7946 9931 9933 28
7947 9931 9934 28
7948 9931 9935 28
7949 9936 9937 28
7950 9936 9938 28
7951 9936 9939 28
7952 9936 9940 28
7953 9941 9942 28
7954 9941 9943 28
7955 9941 9944 28
7956 9941 9945 28
7957 9946 9947 28
7958 9946 9948 28
7959 9946 9949 28
7960 9946 9950 28
7961 9951 9952 28
7962 9951 9953 28
7963 9951 9954 28
7964 9951 9955 28
7965 9956 9957 28
7966 9956 9958 28
7967 9956 9959 28
7968 9956 9960 28
7969 9961 9962 28
7970 9961 9963 28
7971 9961 9964 28
7972 9961 9965 28
7973 9966 9967 28
7974 9966 9968 28
7975 9966 9969 28
7976 9966 9970 28
7977 9971 9972 28
7978 9971 9973 28
7979 9971 9974 28
7980 9971 9975 28
7981 9976 9977 28
7982 9976 9978 28
7983 9976 9979 28
7984 9976 9980 28
7985 9981 9982 28
7986 9981 9983 28
7987 9981 9984 28
7988 9981 9985 28
7989 9986 9987 28
7990 9986 9988 28
7991 9986 9989 28
7992 9986 9990 28
7993 9991 9992 28
7994 9991 9993 28
7995 9991 9994 28
7996 9991 9995 28
7997 9996 9997 28
7998 9996 9998 28
7999 9996 9999 28
8000 9996 10000 28
8001 10001 10002 28
8002 10001 10003 28
8003 10001 10004 28
8004 10001 10005 28
8005 10006 10007 28
8006 10006 10008 28
8007 10006 10009 28
8008 10006 10010 28
8009 10011 10012 28
8010 10011 10013 28
8011 10011 10014 28
8012 10011 10015 28
8013 10016 10017 28
8014 10016 10018 28
8015 10016 10019 28
8016 10016 10020 28
8017 10021 10022 28
8018 10021 10023 28
8019 10021 10024 28
8020 10021 10025 28
8021 10026 10027 28
8022 10026 10028 28
8023 10026 10029 28
8024 10026 10030 28
8025 10031 10032 28
8026 10031 10033 28
8027 10031 10034 28
8028 10031 10035 28
8029 10036 10037 28
8030 10036 10038 28
8031 10036 10039 28
8032 10036 10040 28
8033 10041 10042 28
8034 10041 10043 28
8035 10041 10044 28
8036 10041 10045 28
8037 10046 10047 28
8038 10046 10048 28
8039 10046 10049 28
8040 10046 10050 28
8041 10051 10052 28
8042 10051 10053 28
8043 10051 10054 28
8044 10051 10055 28
8045 10056 10057 28
8046 10056 10058 28
8047 10056 10059 28
8048 10056 10060 28
8049 10061 10062 28
8050 10061 10063 28
8051 10061 10064 28
8052 10061 10065 28
8053 10066 10067 28
8054 10066 10068 28
8055 10066 10069 28
8056 10066 10070 28
8057 10071 10072 28
8058 10071 10073 28
8059 10071 10074 28
8060 10071 10075 28
8061 10076 10077 28
8062 10076 10078 28
8063 10076 10079 28
8064 10076 10080 28
8065 10081 10082 28
8066 10081 10083 28
8067 10081 10084 28
8068 10081 10085 28
8069 10086 10087 28
8070 10086 10088 28
8071 10086 10089 28
8072 10086 10090 28
8073 10091 10092 28
8074 10091 10093 28
8075 10091 10094 28
8076 10091 10095 28
8077 10096 10097 28
8078 10096 10098 28
8079 10096 10099 28
8080 10096 10100 28
8081 10101 10102 28
8082 10101 10103 28
8083 10101 10104 28
8084 10101 10105 28
8085 10106 10107 28
8086 10106 10108 28
8087 10106 10109 28
8088 10106 10110 28
8089 10111 10112 28
8090 10111 10113 28
8091 10111 10114 28
8092 10111 10115 28
8093 10116 10117 28
8094 10116 10118 28
8095 10116 10119 28
8096 10116 10120 28
8097 10121 10122 28
8098 10121 10123 28
8099 10121 10124 28
8100 10121 10125 28
8101 10126 10127 28
8102 10126 10128 28
8103 10126 10129 28
8104 10126 10130 28
8105 10131 10132 28
8106 10131 10133 28
8107 10131 10134 28
8108 10131 10135 28
8109 10136 10137 28
8110 10136 10138 28
8111 10136 10139 28
8112 10136 10140 28
8113 10141 10142 28
8114 10141 10143 28
8115 10141 10144 28
8116 10141 10145 28
8117 10146 10147 28
8118 10146 10148 28
8119 10146 10149 28
8120 10146 10150 28
8121 10151 10152 28
8122 10151 10153 28
8123 10151 10154 28
8124 10151 10155 28
8125 10156 10157 28
8126 10156 10158 28
8127 10156 10159 28
8128 10156 10160 28
8129 10161 10162 28
8130 10161 10163 28
8131 10161 10164 28
8132 10161 10165 28
8133 10166 10167 28
8134 10166 10168 28
8135 10166 10169 28
8136 10166 10170 28
8137 10171 10172 28
8138 10171 10173 28
8139 10171 10174 28
8140 10171 10175 28
8141 10176 10177 28
8142 10176 10178 28
8143 10176 10179 28
8144 10176 10180 28
8145 10181 10182 28
8146 10181 10183 28
8147 10181 10184 28
8148 10181 10185 28
8149 10186 10187 28
8150 10186 10188 28
8151 10186 10189 28
8152 10186 10190 28
8153 10191 10192 28
8154 10191 10193 28
8155 10191 10194 28
8156 10191 10195 28
8157 10196 10197 28
8158 10196 10198 28
8159 10196 10199 28
8160 10196 10200 28
8161 10201 10202 28
8162 10201 10203 28
8163 10201 10204 28
8164 10201 10205 28
8165 10206 10207 28
8166 10206 10208 28
8167 10206 10209 28
8168 10206 10210 28
8169 10211 10212 28
8170 10211 10213 28
8171 10211 10214 28
8172 10211 10215 28
8173 10216 10217 28
8174 10216 10218 28
8175 10216 10219 28
8176 10216 10220 28
8177 10221 10222 28
8178 10221 10223 28
8179 10221 10224 28
8180 10221 10225 28
8181 10226 10227 28
8182 10226 10228 28
8183 10226 10229 28
8184 10226 10230 28
8185 10231 10232 28
8186 10231 10233 28
8187 10231 10234 28
8188 10231 10235 28
8189 10236 10237 28
8190 10236 10238 28
8191 10236 10239 28
8192 10236 10240 28
8193 10241 10242 28
8194 10241 10243 28
8195 10241 10244 28
8196 10241 10245 28
8197 10246 10247 28
8198 10246 10248 28
8199 10246 10249 28
8200 10246 10250 28
8201 10251 10252 28
8202 10251 10253 28
8203 10251 10254 28
8204 10251 10255 28
8205 10256 10257 28
8206 10256 10258 28
8207 10256 10259 28
8208 10256 10260 28
8209 10261 10262 28
8210 10261 10263 28
8211 10261 10264 28
8212 10261 10265 28
8213 10266 10267 28
8214 10266 10268 28
8215 10266 10269 28
8216 10266 10270 28
8217 10271 10272 28
8218 10271 10273 28
8219 10271 10274 28
8220 10271 10275 28
8221 10276 10277 28
8222 10276 10278 28
8223 10276 10279 28
8224 10276 10280 28
8225 10281 10282 28
8226 10281 10283 28
8227 10281 10284 28
8228 10281 10285 28
8229 10286 10287 28
8230 10286 10288 28
8231 10286 10289 28
8232 10286 10290 28
8233 10291 10292 28
8234 10291 10293 28
8235 10291 10294 28
8236 10291 10295 28
8237 10296 10297 28
8238 10296 10298 28
8239 10296 10299 28
8240 10296 10300 28
8241 10301 10302 28
8242 10301 10303 28
8243 10301 10304 28
8244 10301 10305 28
8245 10306 10307 28
8246 10306 10308 28
8247 10306 10309 28
8248 10306 10310 28
8249 10311 10312 28
8250 10311 10313 28
8251 10311 10314 28
8252 10311 10315 28
8253 10316 10317 28
8254 10316 10318 28
8255 10316 10319 28
8256 10316 10320 28
8257 10321 10322 28
8258 10321 10323 28
8259 10321 10324 28
8260 10321 10325 28
8261 10326 10327 28
8262 10326 10328 28
8263 10326 10329 28
8264 10326 10330 28
8265 10331 10332 28
8266 10331 10333 28
8267 10331 10334 28
8268 10331 10335 28
8269 10336 10337 28
8270 10336 10338 28
8271 10336 10339 28
8272 10336 10340 28
8273 10341 10342 28
8274 10341 10343 28
8275 10341 10344 28
8276 10341 10345 28
8277 10346 10347 28
8278 10346 10348 28
8279 10346 10349 28
8280 10346 10350 28
8281 10351 10352 28
8282 10351 10353 28
8283 10351 10354 28
8284 10351 10355 28
8285 10356 10357 28
8286 10356 10358 28
8287 10356 10359 28
8288 10356 10360 28
8289 10361 10362 28
8290 10361 10363 28
8291 10361 10364 28
8292 10361 10365 28
8293 10366 10367 28
8294 10366 10368 28
8295 10366 10369 28
8296 10366 10370 28
8297 10371 10372 28
8298 10371 10373 28
8299 10371 10374 28
8300 10371 10375 28
8301 10376 10377 28
8302 10376 10378 28
8303 10376 10379 28
8304 10376 10380 28
8305 10381 10382 28
8306 10381 10383 28
8307 10381 10384 28
8308 10381 10385 28
8309 10386 10387 28
8310 10386 10388 28
8311 10386 10389 28
8312 10386 10390 28
8313 10391 10392 28
8314 10391 10393 28
8315 10391 10394 28
8316 10391 10395 28
8317 10396 10397 28
8318 10396 10398 28
8319 10396 10399 28
8320 10396 10400 28
8321 10401 10402 28
8322 10401 10403 28
8323 10401 10404 28
8324 10401 10405 28
8325 10406 10407 28
8326 10406 10408 28
8327 10406 10409 28
8328 10406 10410 28
8329 10411 10412 28
8330 10411 10413 28
8331 10411 10414 28
8332 10411 10415 28
8333 10416 10417 28
8334 10416 10418 28
8335 10416 10419 28
8336 10416 10420 28
8337 10421 10422 28
8338 10421 10423 28
8339 10421 10424 28
8340 10421 10425 28
8341 10426 10427 28
8342 10426 10428 28
8343 10426 10429 28
8344 10426 10430 28
8345 10431 10432 28
8346 10431 10433 28
8347 10431 10434 28
8348 10431 10435 28
8349 10436 10437 28
8350 10436 10438 28
8351 10436 10439 28
8352 10436 10440 28
8353 10441 10442 28
8354 10441 10443 28
8355 10441 10444 28
8356 10441 10445 28
8357 10446 10447 28
8358 10446 10448 28
8359 10446 10449 28
8360 10446 10450 28
8361 10451 10452 28
8362 10451 10453 28
8363 10451 10454 28
8364 10451 10455 28
8365 10456 10457 28
8366 10456 10458 28
8367 10456 10459 28
8368 10456 10460 28
8369 10461 10462 28
8370 10461 10463 28
8371 10461 10464 28
8372 10461 10465 28
8373 10466 10467 28
8374 10466 10468 28
8375 10466 10469 28
8376 10466 10470 28
8377 10471 10472 28
8378 10471 10473 28
8379 10471 10474 28
8380 10471 10475 28
8381 10476 10477 28
8382 10476 10478 28
8383 10476 10479 28
8384 10476 10480 28
8385 10481 10482 28
8386 10481 10483 28
8387 10481 10484 28
8388 10481 10485 28
8389 10486 10487 28
8390 10486 10488 28
8391 10486 10489 28
8392 10486 10490 28
8393 10491 10492 28
8394 10491 10493 28
8395 10491 10494 28
8396 10491 10495 28
8397 10496 10497 28
8398 10496 10498 28
8399 10496 10499 28
8400 10496 10500 28
8401 10501 10502 28
8402 10501 10503 28
8403 10501 10504 28
8404 10501 10505 28
8405 10506 10507 28
8406 10506 10508 28
8407 10506 10509 28
8408 10506 10510 28
8409 10511 10512 28
8410 10511 10513 28
8411 10511 10514 28
8412 10511 10515 28
8413 10516 10517 28
8414 10516 10518 28
8415 10516 10519 28
8416 10516 10520 28
8417 10521 10522 28
8418 10521 10523 28
8419 10521 10524 28
8420 10521 10525 28
8421 10526 10527 28
8422 10526 10528 28
8423 10526 10529 28
8424 10526 10530 28
8425 10531 10532 28
8426 10531 10533 28
8427 10531 10534 28
8428 10531 10535 28
8429 10536 10537 28
8430 10536 10538 28
8431 10536 10539 28
8432 10536 10540 28
8433 10541 10542 28
8434 10541 10543 28
8435 10541 10544 28
8436 10541 10545 28
8437 10546 10547 28
8438 10546 10548 28
8439 10546 10549 28
8440 10546 10550 28
8441 10551 10552 28
8442 10551 10553 28
8443 10551 10554 28
8444 10551 10555 28
8445 10556 10557 28
8446 10556 10558 28
8447 10556 10559 28
8448 10556 10560 28
8449 10561 10562 28
8450 10561 10563 28
8451 10561 10564 28
8452 10561 10565 28
8453 10566 10567 28
8454 10566 10568 28
8455 10566 10569 28
8456 10566 10570 28
8457 10571 10572 28
8458 10571 10573 28
8459 10571 10574 28
8460 10571 10575 28
8461 10576 10577 28
8462 10576 10578 28
8463 10576 10579 28
8464 10576 10580 28
8465 10581 10582 28
8466 10581 10583 28
8467 10581 10584 28
8468 10581 10585 28
8469 10586 10587 28
8470 10586 10588 28
8471 10586 10589 28
8472 10586 10590 28
8473 10591 10592 28
8474 10591 10593 28
8475 10591 10594 28
8476 10591 10595 28
8477 10596 10597 28
8478 10596 10598 28
8479 10596 10599 28
8480 10596 10600 28
8481 10601 10602 28
8482 10601 10603 28
8483 10601 10604 28
8484 10601 10605 28
8485 10606 10607 28
8486 10606 10608 28
8487 10606 10609 28
8488 10606 10610 28
8489 10611 10612 28
8490 10611 10613 28
8491 10611 10614 28
8492 10611 10615 28
8493 10616 10617 28
8494 10616 10618 28
8495 10616 10619 28
8496 10616 10620 28
8497 10621 10622 28
8498 10621 10623 28
8499 10621 10624 28
8500 10621 10625 28
8501 10626 10627 28
8502 10626 10628 28
8503 10626 10629 28
8504 10626 10630 28
8505 10631 10632 28
8506 10631 10633 28
8507 10631 10634 28
8508 10631 10635 28
8509 10636 10637 28
8510 10636 10638 28
8511 10636 10639 28
8512 10636 10640 28
8513 10641 10642 28
8514 10641 10643 28
8515 10641 10644 28
8516 10641 10645 28
8517 10646 10647 28
8518 10646 10648 28
8519 10646 10649 28
8520 10646 10650 28
8521 10651 10652 28
8522 10651 10653 28
8523 10651 10654 28
8524 10651 10655 28
8525 10656 10657 28
8526 10656 10658 28
8527 10656 10659 28
8528 10656 10660 28
8529 10661 10662 28
8530 10661 10663 28
8531 10661 10664 28
8532 10661 10665 28
8533 10666 10667 28
8534 10666 10668 28
8535 10666 10669 28
8536 10666 10670 28
8537 10671 10672 28
8538 10671 10673 28
8539 10671 10674 28
8540 10671 10675 28
8541 10676 10677 28
8542 10676 10678 28
8543 10676 10679 28
8544 10676 10680 28
8545 10681 10682 28
8546 10681 10683 28
8547 10681 10684 28
8548 10681 10685 28
8549 10686 10687 28
8550 10686 10688 28
8551 10686 10689 28
8552 10686 10690 28
8553 10691 10692 28
8554 10691 10693 28
8555 10691 10694 28
8556 10691 10695 28
8557 10696 10697 28
8558 10696 10698 28
8559 10696 10699 28
8560 10696 10700 28
8561 10701 10702 28
8562 10701 10703 28
8563 10701 10704 28
8564 10701 10705 28
8565 10706 10707 28
8566 10706 10708 28
8567 10706 10709 28
8568 10706 10710 28
8569 10711 10712 28
8570 10711 10713 28
8571 10711 10714 28
8572 10711 10715 28
8573 10716 10717 28
8574 10716 10718 28
8575 10716 10719 28
8576 10716 10720 28
8577 10721 10722 28
8578 10721 10723 28
8579 10721 10724 28
8580 10721 10725 28
8581 10726 10727 28
8582 10726 10728 28
8583 10726 10729 28
8584 10726 10730 28
8585 10731 10732 28
8586 10731 10733 28
8587 10731 10734 28
8588 10731 10735 28
8589 10736 10737 28
8590 10736 10738 28
8591 10736 10739 28
8592 10736 10740 28
8593 10741 10742 28
8594 10741 10743 28
8595 10741 10744 28
8596 10741 10745 28
8597 10746 10747 28
8598 10746 10748 28
8599 10746 10749 28
8600 10746 10750 28
8601 10751 10752 28
8602 10751 10753 28
8603 10751 10754 28
8604 10751 10755 28
8605 10756 10757 28
8606 10756 10758 28
8607 10756 10759 28
8608 10756 10760 28
8609 10761 10762 28
8610 10761 10763 28
8611 10761 10764 28
8612 10761 10765 28
8613 10766 10767 28
8614 10766 10768 28
8615 10766 10769 28
8616 10766 10770 28
8617 10771 10772 28
8618 10771 10773 28
8619 10771 10774 28
8620 10771 10775 28
8621 10776 10777 28
8622 10776 10778 28
8623 10776 10779 28
8624 10776 10780 28
8625 10781 10782 28
8626 10781 10783 28
8627 10781 10784 28
8628 10781 10785 28
8629 10786 10787 28
8630 10786 10788 28
8631 10786 10789 28
8632 10786 10790 28
8633 10791 10792 28
8634 10791 10793 28
8635 10791 10794 28
8636 10791 10795 28
8637 10796 10797 28
8638 10796 10798 28
8639 10796 10799 28
8640 10796 10800 28
8641 10801 10802 28
8642 10801 10803 28
8643 10801 10804 28
8644 10801 10805 28
8645 10806 10807 28
8646 10806 10808 28
8647 10806 10809 28
8648 10806 10810 28
8649 10811 10812 28
8650 10811 10813 28
8651 10811 10814 28
8652 10811 10815 28
8653 10816 10817 28
8654 10816 10818 28
8655 10816 10819 28
8656 10816 10820 28
8657 10821 10822 28
8658 10821 10823 28
8659 10821 10824 28
8660 10821 10825 28
8661 10826 10827 28
8662 10826 10828 28
8663 10826 10829 28
8664 10826 10830 28
8665 10831 10832 28
8666 10831 10833 28
8667 10831 10834 28
8668 10831 10835 28
8669 10836 10837 28
8670 10836 10838 28
8671 10836 10839 28
8672 10836 10840 28
8673 10841 10842 28
8674 10841 10843 28
8675 10841 10844 28
8676 10841 10845 28
8677 10846 10847 28
8678 10846 10848 28
8679 10846 10849 28
8680 10846 10850 28
8681 10851 10852 28
8682 10851 10853 28
8683 10851 10854 28
8684 10851 10855 28
8685 10856 10857 28
8686 10856 10858 28
8687 10856 10859 28
8688 10856 10860 28
8689 10861 10862 28
8690 10861 10863 28
8691 10861 10864 28
8692 10861 10865 28
8693 10866 10867 28
8694 10866 10868 28
8695 10866 10869 28
8696 10866 10870 28
8697 10871 10872 28
8698 10871 10873 28
8699 10871 10874 28
8700 10871 10875 28
8701 10876 10877 28
8702 10876 10878 28
8703 10876 10879 28
8704 10876 10880 28
8705 10881 10882 28
8706 10881 10883 28
8707 10881 10884 28
8708 10881 10885 28
8709 10886 10887 28
8710 10886 10888 28
8711 10886 10889 28
8712 10886 10890 28
8713 10891 10892 28
8714 10891 10893 28
8715 10891 10894 28
8716 10891 10895 28
8717 10896 10897 28
8718 10896 10898 28
8719 10896 10899 28
8720 10896 10900 28
8721 10901 10902 28
8722 10901 10903 28
8723 10901 10904 28
8724 10901 10905 28
8725 10906 10907 28
8726 10906 10908 28
8727 10906 10909 28
8728 10906 10910 28
8729 10911 10912 28
8730 10911 10913 28
8731 10911 10914 28
8732 10911 10915 28
8733 10916 10917 28
8734 10916 10918 28
8735 10916 10919 28
8736 10916 10920 28
8737 10921 10922 28
8738 10921 10923 28
8739 10921 10924 28
8740 10921 10925 28
8741 10926 10927 28
8742 10926 10928 28
8743 10926 10929 28
8744 10926 10930 28
8745 10931 10932 28
8746 10931 10933 28
8747 10931 10934 28
8748 10931 10935 28
8749 10936 10937 28
8750 10936 10938 28
8751 10936 10939 28
8752 10936 10940 28
8753 10941 10942 28
8754 10941 10943 28
8755 10941 10944 28
8756 10941 10945 28
8757 10946 10947 28
8758 10946 10948 28
8759 10946 10949 28
8760 10946 10950 28
8761 10951 10952 28
8762 10951 10953 28
8763 10951 10954 28
8764 10951 10955 28
8765 10956 10957 28
8766 10956 10958 28
8767 10956 10959 28
8768 10956 10960 28
8769 10961 10962 28
8770 10961 10963 28
8771 10961 10964 28
8772 10961 10965 28
8773 10966 10967 28
8774 10966 10968 28
8775 10966 10969 28
8776 10966 10970 28
8777 10971 10972 28
8778 10971 10973 28
8779 10971 10974 28
8780 10971 10975 28
8781 10976 10977 28
8782 10976 10978 28
8783 10976 10979 28
8784 10976 10980 28
8785 10981 10982 28
8786 10981 10983 28
8787 10981 10984 28
8788 10981 10985 28
8789 10986 10987 28
8790 10986 10988 28
8791 10986 10989 28
8792 10986 10990 28
8793 10991 10992 28
8794 10991 10993 28
8795 10991 10994 28
8796 10991 10995 28
8797 10996 10997 28
8798 10996 10998 28
8799 10996 10999 28
8800 10996 11000 28
8801 11001 11002 28
8802 11001 11003 28
8803 11001 11004 28
8804 11001 11005 28
8805 11006 11007 28
8806 11006 11008 28
8807 11006 11009 28
8808 11006 11010 28
8809 11011 11012 28
8810 11011 11013 28
8811 11011 11014 28
8812 11011 11015 28
8813 11016 11017 28
8814 11016 11018 28
8815 11016 11019 28
8816 11016 11020 28
8817 11021 11022 28
8818 11021 11023 28
8819 11021 11024 28
8820 11021 11025 28
8821 11026 11027 28
8822 11026 11028 28
8823 11026 11029 28
8824 11026 11030 28
8825 11031 11032 28
8826 11031 11033 28
8827 11031 11034 28
8828 11031 11035 28
8829 11036 11037 28
8830 11036 11038 28
8831 11036 11039 28
8832 11036 11040 28
8833 11041 11042 28
8834 11041 11043 28
8835 11041 11044 28
8836 11041 11045 28
8837 11046 11047 28
8838 11046 11048 28
8839 11046 11049 28
8840 11046 11050 28
8841 11051 11052 28
8842 11051 11053 28
8843 11051 11054 28
8844 11051 11055 28
8845 11056 11057 28
8846 11056 11058 28
8847 11056 11059 28
8848 11056 11060 28
8849 11061 11062 28
8850 11061 11063 28
8851 11061 11064 28
8852 11061 11065 28
8853 11066 11067 28
8854 11066 11068 28
8855 11066 11069 28
8856 11066 11070 28
8857 11071 11072 28
8858 11071 11073 28
8859 11071 11074 28
8860 11071 11075 28
8861 11076 11077 28
8862 11076 11078 28
8863 11076 11079 28
8864 11076 11080 28
8865 11081 11082 28
8866 11081 11083 28
8867 11081 11084 28
8868 11081 11085 28
8869 11086 11087 28
8870 11086 11088 28
8871 11086 11089 28
8872 11086 11090 28
8873 11091 11092 28
8874 11091 11093 28
8875 11091 11094 28
8876 11091 11095 28
8877 11096 11097 28
8878 11096 11098 28
8879 11096 11099 28
8880 11096 11100 28
8881 11101 11102 28
8882 11101 11103 28
8883 11101 11104 28
8884 11101 11105 28
8885 11106 11107 28
8886 11106 11108 28
8887 11106 11109 28
8888 11106 11110 28
8889 11111 11112 28
8890 11111 11113 28
8891 11111 11114 28
8892 11111 11115 28
8893 11116 11117 28
8894 11116 11118 28
8895 11116 11119 28
8896 11116 11120 28
8897 11121 11122 28
8898 11121 11123 28
8899 11121 11124 28
8900 11121 11125 28
8901 11126 11127 28
8902 11126 11128 28
8903 11126 11129 28
8904 11126 11130 28
8905 11131 11132 28
8906 11131 11133 28
8907 11131 11134 28
8908 11131 11135 28
8909 11136 11137 28
8910 11136 11138 28
8911 11136 11139 28
8912 11136 11140 28
8913 11141 11142 28
8914 11141 11143 28
8915 11141 11144 28
8916 11141 11145 28
8917 11146 11147 28
8918 11146 11148 28
8919 11146 11149 28
8920 11146 11150 28
8921 11151 11152 28
8922 11151 11153 28
8923 11151 11154 28
8924 11151 11155 28
8925 11156 11157 28
8926 11156 11158 28
8927 11156 11159 28
8928 11156 11160 28
8929 11161 11162 28
8930 11161 11163 28
8931 11161 11164 28
8932 11161 11165 28
8933 11166 11167 28
8934 11166 11168 28
8935 11166 11169 28
8936 11166 11170 28
8937 11171 11172 28
8938 11171 11173 28
8939 11171 11174 28
8940 11171 11175 28
8941 11176 11177 28
8942 11176 11178 28
8943 11176 11179 28
8944 11176 11180 28
8945 11181 11182 28
8946 11181 11183 28
8947 11181 11184 28
8948 11181 11185 28
8949 11186 11187 28
8950 11186 11188 28
8951 11186 11189 28
8952 11186 11190 28
8953 11191 11192 28
8954 11191 11193 28
8955 11191 11194 28
8956 11191 11195 28
8957 11196 11197 28
8958 11196 11198 28
8959 11196 11199 28
8960 11196 11200 28
8961 11201 11202 28
8962 11201 11203 28
8963 11201 11204 28
8964 11201 11205 28
8965 11206 11207 28
8966 11206 11208 28
8967 11206 11209 28
8968 11206 11210 28
8969 11211 11212 28
8970 11211 11213 28
8971 11211 11214 28
8972 11211 11215 28
8973 11216 11217 28
8974 11216 11218 28
8975 11216 11219 28
8976 11216 11220 28
8977 11221 11222 28
8978 11221 11223 28
8979 11221 11224 28
8980 11221 11225 28
8981 11226 11227 28
8982 11226 11228 28
8983 11226 11229 28
8984 11226 11230 28
8985 11231 11232 28
8986 11231 11233 28
8987 11231 11234 28
8988 11231 11235 28
8989 11236 11237 28
8990 11236 11238 28
8991 11236 11239 28
8992 11236 11240 28
8993 11241 11242 28
8994 11241 11243 28
8995 11241 11244 28
8996 11241 11245 28
8997 11246 11247 28
8998 11246 11248 28
8999 11246 11249 28
9000 11246 11250 28
9001 11251 11252 28
9002 11251 11253 28
9003 11251 11254 28
9004 11251 11255 28
9005 11256 11257 28
9006 11256 11258 28
9007 11256 11259 28
9008 11256 11260 28
9009 11261 11262 28
9010 11261 11263 28
9011 11261 11264 28
9012 11261 11265 28
9013 11266 11267 28
9014 11266 11268 28
9015 11266 11269 28
9016 11266 11270 28
9017 11271 11272 28
9018 11271 11273 28
9019 11271 11274 28
9020 11271 11275 28
9021 11276 11277 28
9022 11276 11278 28
9023 11276 11279 28
9024 11276 11280 28
9025 11281 11282 28
9026 11281 11283 28
9027 11281 11284 28
9028 11281 11285 28
9029 11286 11287 28
9030 11286 11288 28
9031 11286 11289 28
9032 11286 11290 28
9033 11291 11292 28
9034 11291 11293 28
9035 11291 11294 28
9036 11291 11295 28
9037 11296 11297 28
9038 11296 11298 28
9039 11296 11299 28
9040 11296 11300 28
9041 11301 11302 28
9042 11301 11303 28
9043 11301 11304 28
9044 11301 11305 28
9045 11306 11307 28
9046 11306 11308 28
9047 11306 11309 28
9048 11306 11310 28
9049 11311 11312 28
9050 11311 11313 28
9051 11311 11314 28
9052 11311 11315 28
9053 11316 11317 28
9054 11316 11318 28
9055 11316 11319 28
9056 11316 11320 28
9057 11321 11322 28
9058 11321 11323 28
9059 11321 11324 28
9060 11321 11325 28
9061 11326 11327 28
9062 11326 11328 28
9063 11326 11329 28
9064 11326 11330 28
9065 11331 11332 28
9066 11331 11333 28
9067 11331 11334 28
9068 11331 11335 28
9069 11336 11337 28
9070 11336 11338 28
9071 11336 11339 28
9072 11336 11340 28
9073 11341 11342 28
9074 11341 11343 28
9075 11341 11344 28
9076 11341 11345 28
9077 11346 11347 28
9078 11346 11348 28
9079 11346 11349 28
9080 11346 11350 28
9081 11351 11352 28
9082 11351 11353 28
9083 11351 11354 28
9084 11351 11355 28
9085 11356 11357 28
9086 11356 11358 28
9087 11356 11359 28
9088 11356 11360 28
9089 11361 11362 28
9090 11361 11363 28
9091 11361 11364 28
9092 11361 11365 28
9093 11366 11367 28
9094 11366 11368 28
9095 11366 11369 28
9096 11366 11370 28
9097 11371 11372 28
9098 11371 11373 28
9099 11371 11374 28
9100 11371 11375 28
9101 11376 11377 28
9102 11376 11378 28
9103 11376 11379 28
9104 11376 11380 28
9105 11381 11382 28
9106 11381 11383 28
9107 11381 11384 28
9108 11381 11385 28
9109 11386 11387 28
9110 11386 11388 28
9111 11386 11389 28
9112 11386 11390 28
9113 11391 11392 28
9114 11391 11393 28
9115 11391 11394 28
9116 11391 11395 28
9117 11396 11397 28
9118 11396 11398 28
9119 11396 11399 28
9120 11396 11400 28
9121 11401 11402 28
9122 11401 11403 28
9123 11401 11404 28
9124 11401 11405 28
9125 11406 11407 28
9126 11406 11408 28
9127 11406 11409 28
9128 11406 11410 28
9129 11411 11412 28
9130 11411 11413 28
9131 11411 11414 28
9132 11411 11415 28
9133 11416 11417 28
9134 11416 11418 28
9135 11416 11419 28
9136 11416 11420 28
9137 11421 11422 28
9138 11421 11423 28
9139 11421 11424 28
9140 11421 11425 28
9141 11426 11427 28
9142 11426 11428 28
9143 11426 11429 28
9144 11426 11430 28
9145 11431 11432 28
9146 11431 11433 28
9147 11431 11434 28
9148 11431 11435 28
9149 11436 11437 28
9150 11436 11438 28
9151 11436 11439 28
9152 11436 11440 28
9153 11441 11442 28
9154 11441 11443 28
9155 11441 11444 28
9156 11441 11445 28
9157 11446 11447 28
9158 11446 11448 28
9159 11446 11449 28
9160 11446 11450 28
9161 11451 11452 28
9162 11451 11453 28
9163 11451 11454 28
9164 11451 11455 28
9165 11456 11457 28
9166 11456 11458 28
9167 11456 11459 28
9168 11456 11460 28
9169 11461 11462 28
9170 11461 11463 28
9171 11461 11464 28
9172 11461 11465 28
9173 11466 11467 28
9174 11466 11468 28
9175 11466 11469 28
9176 11466 11470 28
9177 11471 11472 28
9178 11471 11473 28
9179 11471 11474 28
9180 11471 11475 28
9181 11476 11477 28
9182 11476 11478 28
9183 11476 11479 28
9184 11476 11480 28
9185 11481 11482 28
9186 11481 11483 28
9187 11481 11484 28
9188 11481 11485 28
9189 11486 11487 28
9190 11486 11488 28
9191 11486 11489 28
9192 11486 11490 28
9193 11491 11492 28
9194 11491 11493 28
9195 11491 11494 28
9196 11491 11495 28
9197 11496 11497 28
9198 11496 11498 28
9199 11496 11499 28
9200 11496 11500 28
9201 11501 11502 28
9202 11501 11503 28
9203 11501 11504 28
9204 11501 11505 28
9205 11506 11507 28
9206 11506 11508 28
9207 11506 11509 28
9208 11506 11510 28
9209 11511 11512 28
9210 11511 11513 28
9211 11511 11514 28
9212 11511 11515 28
9213 11516 11517 28
9214 11516 11518 28
9215 11516 11519 28
9216 11516 11520 28
9217 11521 11522 28
9218 11521 11523 28
9219 11521 11524 28
9220 11521 11525 28
9221 11526 11527 28
9222 11526 11528 28
9223 11526 11529 28
9224 11526 11530 28
9225 11531 11532 28
9226 11531 11533 28
9227 11531 11534 28
9228 11531 11535 28
9229 11536 11537 28
9230 11536 11538 28
9231 11536 11539 28
9232 11536 11540 28
9233 11541 11542 28
9234 11541 11543 28
9235 11541 11544 28
9236 11541 11545 28
9237 11546 11547 28
9238 11546 11548 28
9239 11546 11549 28
9240 11546 11550 28
9241 11551 11552 28
9242 11551 11553 28
9243 11551 11554 28
9244 11551 11555 28
9245 11556 11557 28
9246 11556 11558 28
9247 11556 11559 28
9248 11556 11560 28
9249 11561 11562 28
9250 11561 11563 28
9251 11561 11564 28
9252 11561 11565 28
9253 11566 11567 28
9254 11566 11568 28
9255 11566 11569 28
9256 11566 11570 28
9257 11571 11572 28
9258 11571 11573 28
9259 11571 11574 28
9260 11571 11575 28
9261 11576 11577 28
9262 11576 11578 28
9263 11576 11579 28
9264 11576 11580 28
9265 11581 11582 28
9266 11581 11583 28
9267 11581 11584 28
9268 11581 11585 28
9269 11586 11587 28
9270 11586 11588 28
9271 11586 11589 28
9272 11586 11590 28
9273 11591 11592 28
9274 11591 11593 28
9275 11591 11594 28
9276 11591 11595 28
9277 11596 11597 28
9278 11596 11598 28
9279 11596 11599 28
9280 11596 11600 28
9281 11601 11602 28
9282 11601 11603 28
9283 11601 11604 28
9284 11601 11605 28
9285 11606 11607 28
9286 11606 11608 28
9287 11606 11609 28
9288 11606 11610 28
9289 11611 11612 28
9290 11611 11613 28
9291 11611 11614 28
9292 11611 11615 28
9293 11616 11617 28
9294 11616 11618 28
9295 11616 11619 28
9296 11616 11620 28
9297 11621 11622 28
9298 11621 11623 28
9299 11621 11624 28
9300 11621 11625 28
9301 11626 11627 28
9302 11626 11628 28
9303 11626 11629 28
9304 11626 11630 28
9305 11631 11632 28
9306 11631 11633 28
9307 11631 11634 28
9308 11631 11635 28
9309 11636 11637 28
9310 11636 11638 28
9311 11636 11639 28
9312 11636 11640 28
9313 11641 11642 28
9314 11641 11643 28
9315 11641 11644 28
9316 11641 11645 28
9317 11646 11647 28
9318 11646 11648 28
9319 11646 11649 28
9320 11646 11650 28
9321 11651 11652 28
9322 11651 11653 28
9323 11651 11654 28
9324 11651 11655 28
9325 11656 11657 28
9326 11656 11658 28
9327 11656 11659 28
9328 11656 11660 28
9329 11661 11662 28
9330 11661 11663 28
9331 11661 11664 28
9332 11661 11665 28
9333 11666 11667 28
9334 11666 11668 28
9335 11666 11669 28
9336 11666 11670 28
9337 11671 11672 28
9338 11671 11673 28
9339 11671 11674 28
9340 11671 11675 28
9341 11676 11677 28
9342 11676 11678 28
9343 11676 11679 28
9344 11676 11680 28
9345 11681 11682 28
9346 11681 11683 28
9347 11681 11684 28
9348 11681 11685 28
9349 11686 11687 28
9350 11686 11688 28
9351 11686 11689 28
9352 11686 11690 28
9353 11691 11692 28
9354 11691 11693 28
9355 11691 11694 28
9356 11691 11695 28
9357 11696 11697 28
9358 11696 11698 28
9359 11696 11699 28
9360 11696 11700 28
9361 11701 11702 28
9362 11701 11703 28
9363 11701 11704 28
9364 11701 11705 28
9365 11706 11707 28
9366 11706 11708 28
9367 11706 11709 28
9368 11706 11710 28
9369 11711 11712 28
9370 11711 11713 28
9371 11711 11714 28
9372 11711 11715 28
9373 11716 11717 28
9374 11716 11718 28
9375 11716 11719 28
9376 11716 11720 28
9377 11721 11722 28
9378 11721 11723 28
9379 11721 11724 28
9380 11721 11725 28
9381 11726 11727 28
9382 11726 11728 28
9383 11726 11729 28
9384 11726 11730 28
9385 11731 11732 28
9386 11731 11733 28
9387 11731 11734 28
9388 11731 11735 28
9389 11736 11737 28
9390 11736 11738 28
9391 11736 11739 28
9392 11736 11740 28
9393 11741 11742 28
9394 11741 11743 28
9395 11741 11744 28
9396 11741 11745 28
9397 11746 11747 28
9398 11746 11748 28
9399 11746 11749 28
9400 11746 11750 28
9401 11751 11752 28
9402 11751 11753 28
9403 11751 11754 28
9404 11751 11755 28
9405 11756 11757 28
9406 11756 11758 28
9407 11756 11759 28
9408 11756 11760 28
9409 11761 11762 28
9410 11761 11763 28
9411 11761 11764 28
9412 11761 11765 28
9413 11766 11767 28
9414 11766 11768 28
9415 11766 11769 28
9416 11766 11770 28
9417 11771 11772 28
9418 11771 11773 28
9419 11771 11774 28
9420 11771 11775 28
9421 11776 11777 28
9422 11776 11778 28
9423 11776 11779 28
9424 11776 11780 28
9425 11781 11782 28
9426 11781 11783 28
9427 11781 11784 28
9428 11781 11785 28
9429 11786 11787 28
9430 11786 11788 28
9431 11786 11789 28
9432 11786 11790 28
9433 11791 11792 28
9434 11791 11793 28
9435 11791 11794 28
9436 11791 11795 28
9437 11796 11797 28
9438 11796 11798 28
9439 11796 11799 28
9440 11796 11800 28
9441 11801 11802 28
9442 11801 11803 28
9443 11801 11804 28
9444 11801 11805 28
9445 11806 11807 28
9446 11806 11808 28
9447 11806 11809 28
9448 11806 11810 28
9449 11811 11812 28
9450 11811 11813 28
9451 11811 11814 28
9452 11811 11815 28
9453 11816 11817 28
9454 11816 11818 28
9455 11816 11819 28
9456 11816 11820 28
9457 11821 11822 28
9458 11821 11823 28
9459 11821 11824 28
9460 11821 11825 28
9461 11826 11827 28
9462 11826 11828 28
9463 11826 11829 28
9464 11826 11830 28
9465 11831 11832 28
9466 11831 11833 28
9467 11831 11834 28
9468 11831 11835 28
9469 11836 11837 28
9470 11836 11838 28
9471 11836 11839 28
9472 11836 11840 28
9473 11841 11842 28
9474 11841 11843 28
9475 11841 11844 28
9476 11841 11845 28
9477 11846 11847 28
9478 11846 11848 28
9479 11846 11849 28
9480 11846 11850 28
9481 11851 11852 28
9482 11851 11853 28
9483 11851 11854 28
9484 11851 11855 28
9485 11856 11857 28
9486 11856 11858 28
9487 11856 11859 28
9488 11856 11860 28
9489 11861 11862 28
9490 11861 11863 28
9491 11861 11864 28
9492 11861 11865 28
9493 11866 11867 28
9494 11866 11868 28
9495 11866 11869 28
9496 11866 11870 28
9497 11871 11872 28
9498 11871 11873 28
9499 11871 11874 28
9500 11871 11875 28
9501 11876 11877 28
9502 11876 11878 28
9503 11876 11879 28
9504 11876 11880 28
9505 11881 11882 28
9506 11881 11883 28
9507 11881 11884 28
9508 11881 11885 28
9509 11886 11887 28
9510 11886 11888 28
9511 11886 11889 28
9512 11886 11890 28
9513 11891 11892 28
9514 11891 11893 28
9515 11891 11894 28
9516 11891 11895 28
9517 11896 11897 28
9518 11896 11898 28
9519 11896 11899 28
9520 11896 11900 28
9521 11901 11902 28
9522 11901 11903 28
9523 11901 11904 28
9524 11901 11905 28
9525 11906 11907 28
9526 11906 11908 28
9527 11906 11909 28
9528 11906 11910 28
9529 11911 11912 28
9530 11911 11913 28
9531 11911 11914 28
9532 11911 11915 28
9533 11916 11917 28
9534 11916 11918 28
9535 11916 11919 28
9536 11916 11920 28
9537 11921 11922 28
9538 11921 11923 28
9539 11921 11924 28
9540 11921 11925 28
9541 11926 11927 28
9542 11926 11928 28
9543 11926 11929 28
9544 11926 11930 28
9545 11931 11932 28
9546 11931 11933 28
9547 11931 11934 28
9548 11931 11935 28
9549 11936 11937 28
9550 11936 11938 28
9551 11936 11939 28
9552 11936 11940 28
9553 11941 11942 28
9554 11941 11943 28
9555 11941 11944 28
9556 11941 11945 28
9557 11946 11947 28
9558 11946 11948 28
9559 11946 11949 28
9560 11946 11950 28
9561 11951 11952 28
9562 11951 11953 28
9563 11951 11954 28
9564 11951 11955 28
9565 11956 11957 28
9566 11956 11958 28
9567 11956 11959 28
9568 11956 11960 28
9569 11961 11962 28
9570 11961 11963 28
9571 11961 11964 28
9572 11961 11965 28
9573 11966 11967 28
9574 11966 11968 28
9575 11966 11969 28
9576 11966 11970 28
9577 11971 11972 28
9578 11971 11973 28
9579 11971 11974 28
9580 11971 11975 28
9581 11976 11977 28
9582 11976 11978 28
9583 11976 11979 28
9584 11976 11980 28
9585 11981 11982 28
9586 11981 11983 28
9587 11981 11984 28
9588 11981 11985 28
9589 11986 11987 28
9590 11986 11988 28
9591 11986 11989 28
9592 11986 11990 28
9593 11991 11992 28
9594 11991 11993 28
9595 11991 11994 28
9596 11991 11995 28
9597 11996 11997 28
9598 11996 11998 28
9599 11996 11999 28
9600 11996 12000 28
9601 12001 12002 28
9602 12001 12003 28
9603 12001 12004 28
9604 12001 12005 28
9605 12006 12007 28
9606 12006 12008 28
9607 12006 12009 28
9608 12006 12010 28
9609 12011 12012 28
9610 12011 12013 28
9611 12011 12014 28
9612 12011 12015 28
9613 12016 12017 28
9614 12016 12018 28
9615 12016 12019 28
9616 12016 12020 28
9617 12021 12022 28
9618 12021 12023 28
9619 12021 12024 28
9620 12021 12025 28
9621 12026 12027 28
9622 12026 12028 28
9623 12026 12029 28
9624 12026 12030 28
9625 12031 12032 28
9626 12031 12033 28
9627 12031 12034 28
9628 12031 12035 28
9629 12036 12037 28
9630 12036 12038 28
9631 12036 12039 28
9632 12036 12040 28
9633 12041 12042 28
9634 12041 12043 28
9635 12041 12044 28
9636 12041 12045 28
9637 12046 12047 28
9638 12046 12048 28
9639 12046 12049 28
9640 12046 12050 28
9641 12051 12052 28
9642 12051 12053 28
9643 12051 12054 28
9644 12051 12055 28
9645 12056 12057 28
9646 12056 12058 28
9647 12056 12059 28
9648 12056 12060 28
9649 12061 12062 28
9650 12061 12063 28
9651 12061 12064 28
9652 12061 12065 28
9653 12066 12067 28
9654 12066 12068 28
9655 12066 12069 28
9656 12066 12070 28
9657 12071 12072 28
9658 12071 12073 28
9659 12071 12074 28
9660 12071 12075 28
9661 12076 12077 28
9662 12076 12078 28
9663 12076 12079 28
9664 12076 12080 28
9665 12081 12082 28
9666 12081 12083 28
9667 12081 12084 28
9668 12081 12085 28
9669 12086 12087 28
9670 12086 12088 28
9671 12086 12089 28
9672 12086 12090 28
9673 12091 12092 28
9674 12091 12093 28
9675 12091 12094 28
9676 12091 12095 28
9677 12096 12097 28
9678 12096 12098 28
9679 12096 12099 28
9680 12096 12100 28
9681 12101 12102 28
9682 12101 12103 28
9683 12101 12104 28
9684 12101 12105 28
9685 12106 12107 28
9686 12106 12108 28
9687 12106 12109 28
9688 12106 12110 28
9689 12111 12112 28
9690 12111 12113 28
9691 12111 12114 28
9692 12111 12115 28
9693 12116 12117 28
9694 12116 12118 28
9695 12116 12119 28
9696 12116 12120 28
9697 12121 12122 28
9698 12121 12123 28
9699 12121 12124 28
9700 12121 12125 28
9701 12126 12127 28
9702 12126 12128 28
9703 12126 12129 28
9704 12126 12130 28
9705 12131 12132 28
9706 12131 12133 28
9707 12131 12134 28
9708 12131 12135 28
9709 12136 12137 28
9710 12136 12138 28
9711 12136 12139 28
9712 12136 12140 28
9713 12141 12142 28
9714 12141 12143 28
9715 12141 12144 28
9716 12141 12145 28
9717 12146 12147 28
9718 12146 12148 28
9719 12146 12149 28
9720 12146 12150 28
9721 12151 12152 28
9722 12151 12153 28
9723 12151 12154 28
9724 12151 12155 28
9725 12156 12157 28
9726 12156 12158 28
9727 12156 12159 28
9728 12156 12160 28
9729 12161 12162 28
9730 12161 12163 28
9731 12161 12164 28
9732 12161 12165 28
9733 12166 12167 28
9734 12166 12168 28
9735 12166 12169 28
9736 12166 12170 28
9737 12171 12172 28
9738 12171 12173 28
9739 12171 12174 28
9740 12171 12175 28
9741 12176 12177 28
9742 12176 12178 28
9743 12176 12179 28
9744 12176 12180 28
9745 12181 12182 28
9746 12181 12183 28
9747 12181 12184 28
9748 12181 12185 28
9749 12186 12187 28
9750 12186 12188 28
9751 12186 12189 28
9752 12186 12190 28
9753 12191 12192 28
9754 12191 12193 28
9755 12191 12194 28
9756 12191 12195 28
9757 12196 12197 28
9758 12196 12198 28
9759 12196 12199 28
9760 12196 12200 28
9761 12201 12202 28
9762 12201 12203 28
9763 12201 12204 28
9764 12201 12205 28
9765 12206 12207 28
9766 12206 12208 28
9767 12206 12209 28
9768 12206 12210 28
9769 12211 12212 28
9770 12211 12213 28
9771 12211 12214 28
9772 12211 12215 28
9773 12216 12217 28
9774 12216 12218 28
9775 12216 12219 28
9776 12216 12220 28
9777 12221 12222 28
9778 12221 12223 28
9779 12221 12224 28
9780 12221 12225 28
9781 12226 12227 28
9782 12226 12228 28
9783 12226 12229 28
9784 12226 12230 28
9785 12231 12232 28
9786 12231 12233 28
9787 12231 12234 28
9788 12231 12235 28
9789 12236 12237 28
9790 12236 12238 28
9791 12236 12239 28
9792 12236 12240 28
9793 12241 12242 28
9794 12241 12243 28
9795 12241 12244 28
9796 12241 12245 28
9797 12246 12247 28
9798 12246 12248 28
9799 12246 12249 28
9800 12246 12250 28
9801 12251 12252 28
9802 12251 12253 28
9803 12251 12254 28
9804 12251 12255 28
9805 12256 12257 28
9806 12256 12258 28
9807 12256 12259 28
9808 12256 12260 28
9809 12261 12262 28
9810 12261 12263 28
9811 12261 12264 28
9812 12261 12265 28
9813 12266 12267 28
9814 12266 12268 28
9815 12266 12269 28
9816 12266 12270 28
9817 12271 12272 28
9818 12271 12273 28
9819 12271 12274 28
9820 12271 12275 28
9821 12276 12277 28
9822 12276 12278 28
9823 12276 12279 28
9824 12276 12280 28
9825 12281 12282 28
9826 12281 12283 28
9827 12281 12284 28
9828 12281 12285 28
9829 12286 12287 28
9830 12286 12288 28
9831 12286 12289 28
9832 12286 12290 28
9833 12291 12292 28
9834 12291 12293 28
9835 12291 12294 28
9836 12291 12295 28
9837 12296 12297 28
9838 12296 12298 28
9839 12296 12299 28
9840 12296 12300 28
9841 12301 12302 28
9842 12301 12303 28
9843 12301 12304 28
9844 12301 12305 28
9845 12306 12307 28
9846 12306 12308 28
9847 12306 12309 28
9848 12306 12310 28
9849 12311 12312 28
9850 12311 12313 28
9851 12311 12314 28
9852 12311 12315 28
9853 12316 12317 28
9854 12316 12318 28
9855 12316 12319 28
9856 12316 12320 28
9857 12321 12322 28
9858 12321 12323 28
9859 12321 12324 28
9860 12321 12325 28
9861 12326 12327 28
9862 12326 12328 28
9863 12326 12329 28
9864 12326 12330 28
9865 12331 12332 28
9866 12331 12333 28
9867 12331 12334 28
9868 12331 12335 28
9869 12336 12337 28
9870 12336 12338 28
9871 12336 12339 28
9872 12336 12340 28
9873 12341 12342 28
9874 12341 12343 28
9875 12341 12344 28
9876 12341 12345 28
9877 12346 12347 28
9878 12346 12348 28
9879 12346 12349 28
9880 12346 12350 28
9881 12351 12352 28
9882 12351 12353 28
9883 12351 12354 28
9884 12351 12355 28
9885 12356 12357 28
9886 12356 12358 28
9887 12356 12359 28
9888 12356 12360 28
9889 12361 12362 28
9890 12361 12363 28
9891 12361 12364 28
9892 12361 12365 28
9893 12366 12367 28
9894 12366 12368 28
9895 12366 12369 28
9896 12366 12370 28
9897 12371 12372 28
9898 12371 12373 28
9899 12371 12374 28
9900 12371 12375 28
9901 12376 12377 28
9902 12376 12378 28
9903 12376 12379 28
9904 12376 12380 28
9905 12381 12382 28
9906 12381 12383 28
9907 12381 12384 28
9908 12381 12385 28
9909 12386 12387 28
9910 12386 12388 28
9911 12386 12389 28
9912 12386 12390 28
9913 12391 12392 28
9914 12391 12393 28
9915 12391 12394 28
9916 12391 12395 28
9917 12396 12397 28
9918 12396 12398 28
9919 12396 12399 28
9920 12396 12400 28
9921 12401 12402 28
9922 12401 12403 28
9923 12401 12404 28
9924 12401 12405 28
9925 12406 12407 28
9926 12406 12408 28
9927 12406 12409 28
9928 12406 12410 28
9929 12411 12412 28
9930 12411 12413 28
9931 12411 12414 28
9932 12411 12415 28
9933 12416 12417 28
9934 12416 12418 28
9935 12416 12419 28
9936 12416 12420 28
9937 12421 12422 28
9938 12421 12423 28
9939 12421 12424 28
9940 12421 12425 28
9941 12426 12427 28
9942 12426 12428 28
9943 12426 12429 28
9944 12426 12430 28
9945 12431 12432 28
9946 12431 12433 28
9947 12431 12434 28
9948 12431 12435 28
9949 12436 12437 28
9950 12436 12438 28
9951 12436 12439 28
9952 12436 12440 28
9953 12441 12442 28
9954 12441 12443 28
9955 12441 12444 28
9956 12441 12445 28
9957 12446 12447 28
9958 12446 12448 28
9959 12446 12449 28
9960 12446 12450 28
9961 12451 12452 28
9962 12451 12453 28
9963 12451 12454 28
9964 12451 12455 28
9965 12456 12457 28
9966 12456 12458 28
9967 12456 12459 28
9968 12456 12460 28
9969 12461 12462 28
9970 12461 12463 28
9971 12461 12464 28
9972 12461 12465 28
9973 12466 12467 28
9974 12466 12468 28
9975 12466 12469 28
9976 12466 12470 28
9977 12471 12472 28
9978 12471 12473 28
9979 12471 12474 28
9980 12471 12475 28
9981 12476 12477 28
9982 12476 12478 28
9983 12476 12479 28
9984 12476 12480 28
9985 12481 12482 28
9986 12481 12483 28
9987 12481 12484 28
9988 12481 12485 28
9989 12486 12487 28
9990 12486 12488 28
9991 12486 12489 28
9992 12486 12490 28
9993 12491 12492 28
9994 12491 12493 28
9995 12491 12494 28
9996 12491 12495 28
9997 12496 12497 28
9998 12496 12498 28
9999 12496 12499 28
10000 12496 12500 28
10001 12501 12502 28
10002 12501 12503 28
10003 12501 12504 28
10004 12501 12505 28
10005 12506 12507 28
10006 12506 12508 28
10007 12506 12509 28
10008 12506 12510 28
10009 12511 12512 28
10010 12511 12513 28
10011 12511 12514 28
10012 12511 12515 28
10013 12516 12517 28
10014 12516 12518 28
10015 12516 12519 28
10016 12516 12520 28
10017 12521 12522 28
10018 12521 12523 28
10019 12521 12524 28
10020 12521 12525 28
10021 12526 12527 28
10022 12526 12528 28
10023 12526 12529 28
10024 12526 12530 28
10025 12531 12532 28
10026 12531 12533 28
10027 12531 12534 28
10028 12531 12535 28
10029 12536 12537 28
10030 12536 12538 28
10031 12536 12539 28
10032 12536 12540 28
10033 12541 12542 28
10034 12541 12543 28
10035 12541 12544 28
10036 12541 12545 28
10037 12546 12547 28
10038 12546 12548 28
10039 12546 12549 28
10040 12546 12550 28
10041 12551 12552 28
10042 12551 12553 28
10043 12551 12554 28
10044 12551 12555 28
10045 12556 12557 28
10046 12556 12558 28
10047 12556 12559 28
10048 12556 12560 28
10049 12561 12562 28
10050 12561 12563 28
10051 12561 12564 28
10052 12561 12565 28
10053 12566 12567 28
10054 12566 12568 28
10055 12566 12569 28
10056 12566 12570 28
10057 12571 12572 28
10058 12571 12573 28
10059 12571 12574 28
10060 12571 12575 28
10061 12576 12577 28
10062 12576 12578 28
10063 12576 12579 28
10064 12576 12580 28
10065 12581 12582 28
10066 12581 12583 28
10067 12581 12584 28
10068 12581 12585 28
10069 12586 12587 28
10070 12586 12588 28
10071 12586 12589 28
10072 12586 12590 28
10073 12591 12592 28
10074 12591 12593 28
10075 12591 12594 28
10076 12591 12595 28
10077 12596 12597 28
10078 12596 12598 28
10079 12596 12599 28
10080 12596 12600 28
10081 12601 12602 28
10082 12601 12603 28
10083 12601 12604 28
10084 12601 12605 28
10085 12606 12607 28
10086 12606 12608 28
10087 12606 12609 28
10088 12606 12610 28
10089 12611 12612 28
10090 12611 12613 28
10091 12611 12614 28
10092 12611 12615 28
10093 12616 12617 28
10094 12616 12618 28
10095 12616 12619 28
10096 12616 12620 28
10097 12621 12622 28
10098 12621 12623 28
10099 12621 12624 28
10100 12621 12625 28
10101 12626 12627 28
10102 12626 12628 28
10103 12626 12629 28
10104 12626 12630 28
10105 12631 12632 28
10106 12631 12633 28
10107 12631 12634 28
10108 12631 12635 28
10109 12636 12637 28
10110 12636 12638 28
10111 12636 12639 28
10112 12636 12640 28
10113 12641 12642 28
10114 12641 12643 28
10115 12641 12644 28
10116 12641 12645 28
10117 12646 12647 28
10118 12646 12648 28
10119 12646 12649 28
10120 12646 12650 28
10121 12651 12652 28
10122 12651 12653 28
10123 12651 12654 28
10124 12651 12655 28
10125 12656 12657 28
10126 12656 12658 28
10127 12656 12659 28
10128 12656 12660 28
10129 12661 12662 28
10130 12661 12663 28
10131 12661 12664 28
10132 12661 12665 28
10133 12666 12667 28
10134 12666 12668 28
10135 12666 12669 28
10136 12666 12670 28
10137 12671 12672 28
10138 12671 12673 28
10139 12671 12674 28
10140 12671 12675 28
10141 12676 12677 28
10142 12676 12678 28
10143 12676 12679 28
10144 12676 12680 28
10145 12681 12682 28
10146 12681 12683 28
10147 12681 12684 28
10148 12681 12685 28
10149 12686 12687 28
10150 12686 12688 28
10151 12686 12689 28
10152 12686 12690 28
10153 12691 12692 28
10154 12691 12693 28
10155 12691 12694 28
10156 12691 12695 28
10157 12696 12697 28
10158 12696 12698 28
10159 12696 12699 28
10160 12696 12700 28
10161 12701 12702 28
10162 12701 12703 28
10163 12701 12704 28
10164 12701 12705 28
10165 12706 12707 28
10166 12706 12708 28
10167 12706 12709 28
10168 12706 12710 28
10169 12711 12712 28
10170 12711 12713 28
10171 12711 12714 28
10172 12711 12715 28
10173 12716 12717 28
10174 12716 12718 28
10175 12716 12719 28
10176 12716 12720 28
10177 12721 12722 28
10178 12721 12723 28
10179 12721 12724 28
10180 12721 12725 28
10181 12726 12727 28
10182 12726 12728 28
10183 12726 12729 28
10184 12726 12730 28
10185 12731 12732 28
10186 12731 12733 28
10187 12731 12734 28
10188 12731 12735 28
10189 12736 12737 28
10190 12736 12738 28
10191 12736 12739 28
10192 12736 12740 28
10193 12741 12742 28
10194 12741 12743 28
10195 12741 12744 28
10196 12741 12745 28
10197 12746 12747 28
10198 12746 12748 28
10199 12746 12749 28
10200 12746 12750 28
10201 12751 12752 28
10202 12751 12753 28
10203 12751 12754 28
10204 12751 12755 28
10205 12756 12757 28
10206 12756 12758 28
10207 12756 12759 28
10208 12756 12760 28
10209 12761 12762 28
10210 12761 12763 28
10211 12761 12764 28
10212 12761 12765 28
10213 12766 12767 28
10214 12766 12768 28
10215 12766 12769 28
10216 12766 12770 28
10217 12771 12772 28
10218 12771 12773 28
10219 12771 12774 28
10220 12771 12775 28
10221 12776 12777 28
10222 12776 12778 28
10223 12776 12779 28
10224 12776 12780 28
10225 12781 12782 28
10226 12781 12783 28
10227 12781 12784 28
10228 12781 12785 28
10229 12786 12787 28
10230 12786 12788 28
10231 12786 12789 28
10232 12786 12790 28
10233 12791 12792 28
10234 12791 12793 28
10235 12791 12794 28
10236 12791 12795 28
10237 12796 12797 28
10238 12796 12798 28
10239 12796 12799 28
10240 12796 12800 28
10241 12801 12802 28
10242 12801 12803 28
10243 12801 12804 28
10244 12801 12805 28
10245 12806 12807 28
10246 12806 12808 28
10247 12806 12809 28
10248 12806 12810 28
10249 12811 12812 28
10250 12811 12813 28
10251 12811 12814 28
10252 12811 12815 28
10253 12816 12817 28
10254 12816 12818 28
10255 12816 12819 28
10256 12816 12820 28
10257 12821 12822 28
10258 12821 12823 28
10259 12821 12824 28
10260 12821 12825 28
10261 12826 12827 28
10262 12826 12828 28
10263 12826 12829 28
10264 12826 12830 28
10265 12831 12832 28
10266 12831 12833 28
10267 12831 12834 28
10268 12831 12835 28
10269 12836 12837 28
10270 12836 12838 28
10271 12836 12839 28
10272 12836 12840 28
10273 12841 12842 28
10274 12841 12843 28
10275 12841 12844 28
10276 12841 12845 28
10277 12846 12847 28
10278 12846 12848 28
10279 12846 12849 28
10280 12846 12850 28
10281 12851 12852 28
10282 12851 12853 28
10283 12851 12854 28
10284 12851 12855 28
10285 12856 12857 28
10286 12856 12858 28
10287 12856 12859 28
10288 12856 12860 28
10289 12861 12862 28
10290 12861 12863 28
10291 12861 12864 28
10292 12861 12865 28
10293 12866 12867 28
10294 12866 12868 28
10295 12866 12869 28
10296 12866 12870 28
10297 12871 12872 28
10298 12871 12873 28
10299 12871 12874 28
10300 12871 12875 28
10301 12876 12877 28
10302 12876 12878 28
10303 12876 12879 28
10304 12876 12880 28
10305 12881 12882 28
10306 12881 12883 28
10307 12881 12884 28
10308 12881 12885 28
10309 12886 12887 28
10310 12886 12888 28
10311 12886 12889 28
10312 12886 12890 28
10313 12891 12892 28
10314 12891 12893 28
10315 12891 12894 28
10316 12891 12895 28
10317 12896 12897 28
10318 12896 12898 28
10319 12896 12899 28
10320 12896 12900 28
10321 12901 12902 28
10322 12901 12903 28
10323 12901 12904 28
10324 12901 12905 28
10325 12906 12907 28
10326 12906 12908 28
10327 12906 12909 28
10328 12906 12910 28
10329 12911 12912 28
10330 12911 12913 28
10331 12911 12914 28
10332 12911 12915 28
10333 12916 12917 28
10334 12916 12918 28
10335 12916 12919 28
10336 12916 12920 28
10337 12921 12922 28
10338 12921 12923 28
10339 12921 12924 28
10340 12921 12925 28
10341 12926 12927 28
10342 12926 12928 28
10343 12926 12929 28
10344 12926 12930 28
10345 12931 12932 28
10346 12931 12933 28
10347 12931 12934 28
10348 12931 12935 28
10349 12936 12937 28
10350 12936 12938 28
10351 12936 12939 28
10352 12936 12940 28
10353 12941 12942 28
10354 12941 12943 28
10355 12941 12944 28
10356 12941 12945 28
10357 12946 12947 28
10358 12946 12948 28
10359 12946 12949 28
10360 12946 12950 28
10361 12951 12952 28
10362 12951 12953 28
10363 12951 12954 28
10364 12951 12955 28
10365 12956 12957 28
10366 12956 12958 28
10367 12956 12959 28
10368 12956 12960 28
10369 12961 12962 28
10370 12961 12963 28
10371 12961 12964 28
10372 12961 12965 28
10373 12966 12967 28
10374 12966 12968 28
10375 12966 12969 28
10376 12966 12970 28
10377 12971 12972 28
10378 12971 12973 28
10379 12971 12974 28
10380 12971 12975 28
10381 12976 12977 28
10382 12976 12978 28
10383 12976 12979 28
10384 12976 12980 28
10385 12981 12982 28
10386 12981 12983 28
10387 12981 12984 28
10388 12981 12985 28
10389 12986 12987 28
10390 12986 12988 28
10391 12986 12989 28
10392 12986 12990 28
10393 12991 12992 28
10394 12991 12993 28
10395 12991 12994 28
10396 12991 12995 28
10397 12996 12997 28
10398 12996 12998 28
10399 12996 12999 28
10400 12996 13000 28
10401 13001 13002 28
10402 13001 13003 28
10403 13001 13004 28
10404 13001 13005 28
10405 13006 13007 28
10406 13006 13008 28
10407 13006 13009 28
10408 13006 13010 28
10409 13011 13012 28
10410 13011 13013 28
10411 13011 13014 28
10412 13011 13015 28
10413 13016 13017 28
10414 13016 13018 28
10415 13016 13019 28
10416 13016 13020 28
10417 13021 13022 28
10418 13021 13023 28
10419 13021 13024 28
10420 13021 13025 28
10421 13026 13027 28
10422 13026 13028 28
10423 13026 13029 28
10424 13026 13030 28
10425 13031 13032 28
10426 13031 13033 28
10427 13031 13034 28
10428 13031 13035 28
10429 13036 13037 28
10430 13036 13038 28
10431 13036 13039 28
10432 13036 13040 28
10433 13041 13042 28
10434 13041 13043 28
10435 13041 13044 28
10436 13041 13045 28
10437 13046 13047 28
10438 13046 13048 28
10439 13046 13049 28
10440 13046 13050 28
10441 13051 13052 28
10442 13051 13053 28
10443 13051 13054 28
10444 13051 13055 28
10445 13056 13057 28
10446 13056 13058 28
10447 13056 13059 28
10448 13056 13060 28
10449 13061 13062 28
10450 13061 13063 28
10451 13061 13064 28
10452 13061 13065 28
10453 13066 13067 28
10454 13066 13068 28
10455 13066 13069 28
10456 13066 13070 28
10457 13071 13072 28
10458 13071 13073 28
10459 13071 13074 28
10460 13071 13075 28
10461 13076 13077 28
10462 13076 13078 28
10463 13076 13079 28
10464 13076 13080 28
10465 13081 13082 28
10466 13081 13083 28
10467 13081 13084 28
10468 13081 13085 28
10469 13086 13087 28
10470 13086 13088 28
10471 13086 13089 28
10472 13086 13090 28
10473 13091 13092 28
10474 13091 13093 28
10475 13091 13094 28
10476 13091 13095 28
10477 13096 13097 28
10478 13096 13098 28
10479 13096 13099 28
10480 13096 13100 28
10481 13101 13102 28
10482 13101 13103 28
10483 13101 13104 28
10484 13101 13105 28
10485 13106 13107 28
10486 13106 13108 28
10487 13106 13109 28
10488 13106 13110 28
10489 13111 13112 28
10490 13111 13113 28
10491 13111 13114 28
10492 13111 13115 28
10493 13116 13117 28
10494 13116 13118 28
10495 13116 13119 28
10496 13116 13120 28
10497 13121 13122 28
10498 13121 13123 28
10499 13121 13124 28
10500 13121 13125 28
10501 13126 13127 28
10502 13126 13128 28
10503 13126 13129 28
10504 13126 13130 28
10505 13131 13132 28
10506 13131 13133 28
10507 13131 13134 28
10508 13131 13135 28
10509 13136 13137 28
10510 13136 13138 28
10511 13136 13139 28
10512 13136 13140 28
10513 13141 13142 28
10514 13141 13143 28
10515 13141 13144 28
10516 13141 13145 28
10517 13146 13147 28
10518 13146 13148 28
10519 13146 13149 28
10520 13146 13150 28
10521 13151 13152 28
10522 13151 13153 28
10523 13151 13154 28
10524 13151 13155 28
10525 13156 13157 28
10526 13156 13158 28
10527 13156 13159 28
10528 13156 13160 28
10529 13161 13162 28
10530 13161 13163 28
10531 13161 13164 28
10532 13161 13165 28
10533 13166 13167 28
10534 13166 13168 28
10535 13166 13169 28
10536 13166 13170 28
10537 13171 13172 28
10538 13171 13173 28
10539 13171 13174 28
10540 13171 13175 28
10541 13176 13177 28
10542 13176 13178 28
10543 13176 13179 28
10544 13176 13180 28
10545 13181 13182 28
10546 13181 13183 28
10547 13181 13184 28
10548 13181 13185 28
10549 13186 13187 28
10550 13186 13188 28
10551 13186 13189 28
10552 13186 13190 28
10553 13191 13192 28
10554 13191 13193 28
10555 13191 13194 28
10556 13191 13195 28
10557 13196 13197 28
10558 13196 13198 28
10559 13196 13199 28
10560 13196 13200 28
10561 13201 13202 28
10562 13201 13203 28
10563 13201 13204 28
10564 13201 13205 28
10565 13206 13207 28
10566 13206 13208 28
10567 13206 13209 28
10568 13206 13210 28
10569 13211 13212 28
10570 13211 13213 28
10571 13211 13214 28
10572 13211 13215 28
10573 13216 13217 28
10574 13216 13218 28
10575 13216 13219 28
10576 13216 13220 28
10577 13221 13222 28
10578 13221 13223 28
10579 13221 13224 28
10580 13221 13225 28
10581 13226 13227 28
10582 13226 13228 28
10583 13226 13229 28
10584 13226 13230 28
10585 13231 13232 28
10586 13231 13233 28
10587 13231 13234 28
10588 13231 13235 28
10589 13236 13237 28
10590 13236 13238 28
10591 13236 13239 28
10592 13236 13240 28
10593 13241 13242 28
10594 13241 13243 28
10595 13241 13244 28
10596 13241 13245 28
10597 13246 13247 28
10598 13246 13248 28
10599 13246 13249 28
10600 13246 13250 28
10601 13251 13252 28
10602 13251 13253 28
10603 13251 13254 28
10604 13251 13255 28
10605 13256 13257 28
10606 13256 13258 28
10607 13256 13259 28
10608 13256 13260 28
10609 13261 13262 28
10610 13261 13263 28
10611 13261 13264 28
10612 13261 13265 28
10613 13266 13267 28
10614 13266 13268 28
10615 13266 13269 28
10616 13266 13270 28
10617 13271 13272 28
10618 13271 13273 28
10619 13271 13274 28
10620 13271 13275 28
10621 13276 13277 28
10622 13276 13278 28
10623 13276 13279 28
10624 13276 13280 28
10625 13281 13282 28
10626 13281 13283 28
10627 13281 13284 28
10628 13281 13285 28
10629 13286 13287 28
10630 13286 13288 28
10631 13286 13289 28
10632 13286 13290 28
10633 13291 13292 28
10634 13291 13293 28
10635 13291 13294 28
10636 13291 13295 28
10637 13296 13297 28
10638 13296 13298 28
10639 13296 13299 28
10640 13296 13300 28
10641 13301 13302 28
10642 13301 13303 28
10643 13301 13304 28
10644 13301 13305 28
10645 13306 13307 28
10646 13306 13308 28
10647 13306 13309 28
10648 13306 13310 28
10649 13311 13312 28
10650 13311 13313 28
10651 13311 13314 28
10652 13311 13315 28
10653 13316 13317 28
10654 13316 13318 28
10655 13316 13319 28
10656 13316 13320 28
10657 13321 13322 28
10658 13321 13323 28
10659 13321 13324 28
10660 13321 13325 28
10661 13326 13327 28
10662 13326 13328 28
10663 13326 13329 28
10664 13326 13330 28
10665 13331 13332 28
10666 13331 13333 28
10667 13331 13334 28
10668 13331 13335 28
10669 13336 13337 28
10670 13336 13338 28
10671 13336 13339 28
10672 13336 13340 28
10673 13341 13342 28
10674 13341 13343 28
10675 13341 13344 28
10676 13341 13345 28
10677 13346 13347 28
10678 13346 13348 28
10679 13346 13349 28
10680 13346 13350 28
10681 13351 13352 28
10682 13351 13353 28
10683 13351 13354 28
10684 13351 13355 28
10685 13356 13357 28
10686 13356 13358 28
10687 13356 13359 28
10688 13356 13360 28
10689 13361 13362 28
10690 13361 13363 28
10691 13361 13364 28
10692 13361 13365 28
10693 13366 13367 28
10694 13366 13368 28
10695 13366 13369 28
10696 13366 13370 28
10697 13371 13372 28
10698 13371 13373 28
10699 13371 13374 28
10700 13371 13375 28
10701 13376 13377 28
10702 13376 13378 28
10703 13376 13379 28
10704 13376 13380 28
10705 13381 13382 28
10706 13381 13383 28
10707 13381 13384 28
10708 13381 13385 28
10709 13386 13387 28
10710 13386 13388 28
10711 13386 13389 28
10712 13386 13390 28
10713 13391 13392 28
10714 13391 13393 28
10715 13391 13394 28
10716 13391 13395 28
10717 13396 13397 28
10718 13396 13398 28
10719 13396 13399 28
10720 13396 13400 28
10721 13401 13402 28
10722 13401 13403 28
10723 13401 13404 28
10724 13401 13405 28
10725 13406 13407 28
10726 13406 13408 28
10727 13406 13409 28
10728 13406 13410 28
10729 13411 13412 28
10730 13411 13413 28
10731 13411 13414 28
10732 13411 13415 28
10733 13416 13417 28
10734 13416 13418 28
10735 13416 13419 28
10736 13416 13420 28
10737 13421 13422 28
10738 13421 13423 28
10739 13421 13424 28
10740 13421 13425 28
10741 13426 13427 28
10742 13426 13428 28
10743 13426 13429 28
10744 13426 13430 28
10745 13431 13432 28
10746 13431 13433 28
10747 13431 13434 28
10748 13431 13435 28
10749 13436 13437 28
10750 13436 13438 28
10751 13436 13439 28
10752 13436 13440 28
10753 13441 13442 28
10754 13441 13443 28
10755 13441 13444 28
10756 13441 13445 28
10757 13446 13447 28
10758 13446 13448 28
10759 13446 13449 28
10760 13446 13450 28
10761 13451 13452 28
10762 13451 13453 28
10763 13451 13454 28
10764 13451 13455 28
10765 13456 13457 28
10766 13456 13458 28
10767 13456 13459 28
10768 13456 13460 28
10769 13461 13462 28
10770 13461 13463 28
10771 13461 13464 28
10772 13461 13465 28
10773 13466 13467 28
10774 13466 13468 28
10775 13466 13469 28
10776 13466 13470 28
10777 13471 13472 28
10778 13471 13473 28
10779 13471 13474 28
10780 13471 13475 28
10781 13476 13477 28
10782 13476 13478 28
10783 13476 13479 28
10784 13476 13480 28
10785 13481 13482 28
10786 13481 13483 28
10787 13481 13484 28
10788 13481 13485 28
10789 13486 13487 28
10790 13486 13488 28
10791 13486 13489 28
10792 13486 13490 28
10793 13491 13492 28
10794 13491 13493 28
10795 13491 13494 28
10796 13491 13495 28
10797 13496 13497 28
10798 13496 13498 28
10799 13496 13499 28
10800 13496 13500 28
10801 13501 13502 28
10802 13501 13503 28
10803 13501 13504 28
10804 13501 13505 28
10805 13506 13507 28
10806 13506 13508 28
10807 13506 13509 28
10808 13506 13510 28
10809 13511 13512 28
10810 13511 13513 28
10811 13511 13514 28
10812 13511 13515 28
10813 13516 13517 28
10814 13516 13518 28
10815 13516 13519 28
10816 13516 13520 28
10817 13521 13522 28
10818 13521 13523 28
10819 13521 13524 28
10820 13521 13525 28
10821 13526 13527 28
10822 13526 13528 28
10823 13526 13529 28
10824 13526 13530 28
10825 13531 13532 28
10826 13531 13533 28
10827 13531 13534 28
10828 13531 13535 28
10829 13536 13537 28
10830 13536 13538 28
10831 13536 13539 28
10832 13536 13540 28
10833 13541 13542 28
10834 13541 13543 28
10835 13541 13544 28
10836 13541 13545 28
10837 13546 13547 28
10838 13546 13548 28
10839 13546 13549 28
10840 13546 13550 28
10841 13551 13552 28
10842 13551 13553 28
10843 13551 13554 28
10844 13551 13555 28
10845 13556 13557 28
10846 13556 13558 28
10847 13556 13559 28
10848 13556 13560 28
10849 13561 13562 28
10850 13561 13563 28
10851 13561 13564 28
10852 13561 13565 28
10853 13566 13567 28
10854 13566 13568 28
10855 13566 13569 28
10856 13566 13570 28
10857 13571 13572 28
10858 13571 13573 28
10859 13571 13574 28
10860 13571 13575 28
10861 13576 13577 28
10862 13576 13578 28
10863 13576 13579 28
10864 13576 13580 28
10865 13581 13582 28
10866 13581 13583 28
10867 13581 13584 28
10868 13581 13585 28
10869 13586 13587 28
10870 13586 13588 28
10871 13586 13589 28
10872 13586 13590 28
10873 13591 13592 28
10874 13591 13593 28
10875 13591 13594 28
10876 13591 13595 28
10877 13596 13597 28
10878 13596 13598 28
10879 13596 13599 28
10880 13596 13600 28
10881 13601 13602 28
10882 13601 13603 28
10883 13601 13604 28
10884 13601 13605 28
10885 13606 13607 28
10886 13606 13608 28
10887 13606 13609 28
10888 13606 13610 28
10889 13611 13612 28
10890 13611 13613 28
10891 13611 13614 28
10892 13611 13615 28
10893 13616 13617 28
10894 13616 13618 28
10895 13616 13619 28
10896 13616 13620 28
10897 13621 13622 28
10898 13621 13623 28
10899 13621 13624 28
10900 13621 13625 28
10901 13626 13627 28
10902 13626 13628 28
10903 13626 13629 28
10904 13626 13630 28
10905 13631 13632 28
10906 13631 13633 28
10907 13631 13634 28
10908 13631 13635 28
10909 13636 13637 28
10910 13636 13638 28
10911 13636 13639 28
10912 13636 13640 28
10913 13641 13642 28
10914 13641 13643 28
10915 13641 13644 28
10916 13641 13645 28
10917 13646 13647 28
10918 13646 13648 28
10919 13646 13649 28
10920 13646 13650 28
10921 13651 13652 28
10922 13651 13653 28
10923 13651 13654 28
10924 13651 13655 28
10925 13656 13657 28
10926 13656 13658 28
10927 13656 13659 28
10928 13656 13660 28
10929 13661 13662 28
10930 13661 13663 28
10931 13661 13664 28
10932 13661 13665 28
10933 13666 13667 28
10934 13666 13668 28
10935 13666 13669 28
10936 13666 13670 28
10937 13671 13672 28
10938 13671 13673 28
10939 13671 13674 28
10940 13671 13675 28
10941 13676 13677 28
10942 13676 13678 28
10943 13676 13679 28
10944 13676 13680 28
10945 13681 13682 28
10946 13681 13683 28
10947 13681 13684 28
10948 13681 13685 28
10949 13686 13687 28
10950 13686 13688 28
10951 13686 13689 28
10952 13686 13690 28
10953 13691 13692 28
10954 13691 13693 28
10955 13691 13694 28
10956 13691 13695 28
10957 13696 13697 28
10958 13696 13698 28
10959 13696 13699 28
10960 13696 13700 28
10961 13701 13702 28
10962 13701 13703 28
10963 13701 13704 28
10964 13701 13705 28
10965 13706 13707 28
10966 13706 13708 28
10967 13706 13709 28
10968 13706 13710 28
10969 13711 13712 28
10970 13711 13713 28
10971 13711 13714 28
10972 13711 13715 28
10973 13716 13717 28
10974 13716 13718 28
10975 13716 13719 28
10976 13716 13720 28
10977 13721 13722 28
10978 13721 13723 28
10979 13721 13724 28
10980 13721 13725 28
10981 13726 13727 28
10982 13726 13728 28
10983 13726 13729 28
10984 13726 13730 28
10985 13731 13732 28
10986 13731 13733 28
10987 13731 13734 28
10988 13731 13735 28
10989 13736 13737 28
10990 13736 13738 28
10991 13736 13739 28
10992 13736 13740 28
10993 13741 13742 28
10994 13741 13743 28
10995 13741 13744 28
10996 13741 13745 28
10997 13746 13747 28
10998 13746 13748 28
10999 13746 13749 28
11000 13746 13750 28
11001 13751 13752 28
11002 13751 13753 28
11003 13751 13754 28
11004 13751 13755 28
11005 13756 13757 28
11006 13756 13758 28
11007 13756 13759 28
11008 13756 13760 28
11009 13761 13762 28
11010 13761 13763 28
11011 13761 13764 28
11012 13761 13765 28
11013 13766 13767 28
11014 13766 13768 28
11015 13766 13769 28
11016 13766 13770 28
11017 13771 13772 28
11018 13771 13773 28
11019 13771 13774 28
11020 13771 13775 28
11021 13776 13777 28
11022 13776 13778 28
11023 13776 13779 28
11024 13776 13780 28
11025 13781 13782 28
11026 13781 13783 28
11027 13781 13784 28
11028 13781 13785 28
11029 13786 13787 28
11030 13786 13788 28
11031 13786 13789 28
11032 13786 13790 28
11033 13791 13792 28
11034 13791 13793 28
11035 13791 13794 28
11036 13791 13795 28
11037 13796 13797 28
11038 13796 13798 28
11039 13796 13799 28
11040 13796 13800 28
11041 13801 13802 28
11042 13801 13803 28
11043 13801 13804 28
11044 13801 13805 28
11045 13806 13807 28
11046 13806 13808 28
11047 13806 13809 28
11048 13806 13810 28
11049 13811 13812 28
11050 13811 13813 28
11051 13811 13814 28
11052 13811 13815 28
11053 13816 13817 28
11054 13816 13818 28
11055 13816 13819 28
11056 13816 13820 28
11057 13821 13822 28
11058 13821 13823 28
11059 13821 13824 28
11060 13821 13825 28
11061 13826 13827 28
11062 13826 13828 28
11063 13826 13829 28
11064 13826 13830 28
11065 13831 13832 28
11066 13831 13833 28
11067 13831 13834 28
11068 13831 13835 28
11069 13836 13837 28
11070 13836 13838 28
11071 13836 13839 28
11072 13836 13840 28
11073 13841 13842 28
11074 13841 13843 28
11075 13841 13844 28
11076 13841 13845 28
11077 13846 13847 28
11078 13846 13848 28
11079 13846 13849 28
11080 13846 13850 28
11081 13851 13852 28
11082 13851 13853 28
11083 13851 13854 28
11084 13851 13855 28
11085 13856 13857 28
11086 13856 13858 28
11087 13856 13859 28
11088 13856 13860 28
11089 13861 13862 28
11090 13861 13863 28
11091 13861 13864 28
11092 13861 13865 28
11093 13866 13867 28
11094 13866 13868 28
11095 13866 13869 28
11096 13866 13870 28
11097 13871 13872 28
11098 13871 13873 28
11099 13871 13874 28
11100 13871 13875 28
11101 13876 13877 28
11102 13876 13878 28
11103 13876 13879 28
11104 13876 13880 28
11105 13881 13882 28
11106 13881 13883 28
11107 13881 13884 28
11108 13881 13885 28
11109 13886 13887 28
11110 13886 13888 28
11111 13886 13889 28
11112 13886 13890 28
11113 13891 13892 28
11114 13891 13893 28
11115 13891 13894 28
11116 13891 13895 28
11117 13896 13897 28
11118 13896 13898 28
11119 13896 13899 28
11120 13896 13900 28
11121 13901 13902 28
11122 13901 13903 28
11123 13901 13904 28
11124 13901 13905 28
11125 13906 13907 28
11126 13906 13908 28
11127 13906 13909 28
11128 13906 13910 28
11129 13911 13912 28
11130 13911 13913 28
11131 13911 13914 28
11132 13911 13915 28
11133 13916 13917 28
11134 13916 13918 28
11135 13916 13919 28
11136 13916 13920 28
11137 13921 13922 28
11138 13921 13923 28
11139 13921 13924 28
11140 13921 13925 28
11141 13926 13927 28
11142 13926 13928 28
11143 13926 13929 28
11144 13926 13930 28
11145 13931 13932 28
11146 13931 13933 28
11147 13931 13934 28
11148 13931 13935 28
11149 13936 13937 28
11150 13936 13938 28
11151 13936 13939 28
11152 13936 13940 28
11153 13941 13942 28
11154 13941 13943 28
11155 13941 13944 28
11156 13941 13945 28
11157 13946 13947 28
11158 13946 13948 28
11159 13946 13949 28
11160 13946 13950 28
11161 13951 13952 28
11162 13951 13953 28
11163 13951 13954 28
11164 13951 13955 28
11165 13956 13957 28
11166 13956 13958 28
11167 13956 13959 28
11168 13956 13960 28
11169 13961 13962 28
11170 13961 13963 28
11171 13961 13964 28
11172 13961 13965 28
11173 13966 13967 28
11174 13966 13968 28
11175 13966 13969 28
11176 13966 13970 28
11177 13971 13972 28
11178 13971 13973 28
11179 13971 13974 28
11180 13971 13975 28
11181 13976 13977 28
11182 13976 13978 28
11183 13976 13979 28
11184 13976 13980 28
11185 13981 13982 28
11186 13981 13983 28
11187 13981 13984 28
11188 13981 13985 28
11189 13986 13987 28
11190 13986 13988 28
11191 13986 13989 28
11192 13986 13990 28
11193 13991 13992 28
11194 13991 13993 28
11195 13991 13994 28
11196 13991 13995 28
11197 13996 13997 28
11198 13996 13998 28
11199 13996 13999 28
11200 13996 14000 28
11201 14001 14002 28
11202 14001 14003 28
11203 14001 14004 28
11204 14001 14005 28
11205 14006 14007 28
11206 14006 14008 28
11207 14006 14009 28
11208 14006 14010 28
11209 14011 14012 28
11210 14011 14013 28
11211 14011 14014 28
11212 14011 14015 28
11213 14016 14017 28
11214 14016 14018 28
11215 14016 14019 28
11216 14016 14020 28
11217 14021 14022 28
11218 14021 14023 28
11219 14021 14024 28
11220 14021 14025 28
11221 14026 14027 28
11222 14026 14028 28
11223 14026 14029 28
11224 14026 14030 28
11225 14031 14032 28
11226 14031 14033 28
11227 14031 14034 28
11228 14031 14035 28
11229 14036 14037 28
11230 14036 14038 28
11231 14036 14039 28
11232 14036 14040 28
11233 14041 14042 28
11234 14041 14043 28
11235 14041 14044 28
11236 14041 14045 28
11237 14046 14047 28
11238 14046 14048 28
11239 14046 14049 28
11240 14046 14050 28
11241 14051 14052 28
11242 14051 14053 28
11243 14051 14054 28
11244 14051 14055 28
11245 14056 14057 28
11246 14056 14058 28
11247 14056 14059 28
11248 14056 14060 28
11249 14061 14062 28
11250 14061 14063 28
11251 14061 14064 28
11252 14061 14065 28
11253 14066 14067 28
11254 14066 14068 28
11255 14066 14069 28
11256 14066 14070 28
11257 14071 14072 28
11258 14071 14073 28
11259 14071 14074 28
11260 14071 14075 28
11261 14076 14077 28
11262 14076 14078 28
11263 14076 14079 28
11264 14076 14080 28
11265 14081 14082 28
11266 14081 14083 28
11267 14081 14084 28
11268 14081 14085 28
11269 14086 14087 28
11270 14086 14088 28
11271 14086 14089 28
11272 14086 14090 28
11273 14091 14092 28
11274 14091 14093 28
11275 14091 14094 28
11276 14091 14095 28
11277 14096 14097 28
11278 14096 14098 28
11279 14096 14099 28
11280 14096 14100 28
11281 14101 14102 28
11282 14101 14103 28
11283 14101 14104 28
11284 14101 14105 28
11285 14106 14107 28
11286 14106 14108 28
11287 14106 14109 28
11288 14106 14110 28
11289 14111 14112 28
11290 14111 14113 28
11291 14111 14114 28
11292 14111 14115 28
11293 14116 14117 28
11294 14116 14118 28
11295 14116 14119 28
11296 14116 14120 28
11297 14121 14122 28
11298 14121 14123 28
11299 14121 14124 28
11300 14121 14125 28
11301 14126 14127 28
11302 14126 14128 28
11303 14126 14129 28
11304 14126 14130 28
11305 14131 14132 28
11306 14131 14133 28
11307 14131 14134 28
11308 14131 14135 28
11309 14136 14137 28
11310 14136 14138 28
11311 14136 14139 28
11312 14136 14140 28
11313 14141 14142 28
11314 14141 14143 28
11315 14141 14144 28
11316 14141 14145 28
11317 14146 14147 28
11318 14146 14148 28
11319 14146 14149 28
11320 14146 14150 28
11321 14151 14152 28
11322 14151 14153 28
11323 14151 14154 28
11324 14151 14155 28
11325 14156 14157 28
11326 14156 14158 28
11327 14156 14159 28
11328 14156 14160 28
11329 14161 14162 28
11330 14161 14163 28
11331 14161 14164 28
11332 14161 14165 28
11333 14166 14167 28
11334 14166 14168 28
11335 14166 14169 28
11336 14166 14170 28
11337 14171 14172 28
11338 14171 14173 28
11339 14171 14174 28
11340 14171 14175 28
11341 14176 14177 28
11342 14176 14178 28
11343 14176 14179 28
11344 14176 14180 28
11345 14181 14182 28
11346 14181 14183 28
11347 14181 14184 28
11348 14181 14185 28
11349 14186 14187 28
11350 14186 14188 28
11351 14186 14189 28
11352 14186 14190 28
11353 14191 14192 28
11354 14191 14193 28
11355 14191 14194 28
11356 14191 14195 28
11357 14196 14197 28
11358 14196 14198 28
11359 14196 14199 28
11360 14196 14200 28
11361 14201 14202 28
11362 14201 14203 28
11363 14201 14204 28
11364 14201 14205 28
11365 14206 14207 28
11366 14206 14208 28
11367 14206 14209 28
11368 14206 14210 28
11369 14211 14212 28
11370 14211 14213 28
11371 14211 14214 28
11372 14211 14215 28
11373 14216 14217 28
11374 14216 14218 28
11375 14216 14219 28
11376 14216 14220 28
11377 14221 14222 28
11378 14221 14223 28
11379 14221 14224 28
11380 14221 14225 28
11381 14226 14227 28
11382 14226 14228 28
11383 14226 14229 28
11384 14226 14230 28
11385 14231 14232 28
11386 14231 14233 28
11387 14231 14234 28
11388 14231 14235 28
11389 14236 14237 28
11390 14236 14238 28
11391 14236 14239 28
11392 14236 14240 28
11393 14241 14242 28
11394 14241 14243 28
11395 14241 14244 28
11396 14241 14245 28
11397 14246 14247 28
11398 14246 14248 28
11399 14246 14249 28
11400 14246 14250 28
11401 14251 14252 28
11402 14251 14253 28
11403 14251 14254 28
11404 14251 14255 28
11405 14256 14257 28
11406 14256 14258 28
11407 14256 14259 28
11408 14256 14260 28
11409 14261 14262 28
11410 14261 14263 28
11411 14261 14264 28
11412 14261 14265 28
11413 14266 14267 28
11414 14266 14268 28
11415 14266 14269 28
11416 14266 14270 28
11417 14271 14272 28
11418 14271 14273 28
11419 14271 14274 28
11420 14271 14275 28
11421 14276 14277 28
11422 14276 14278 28
11423 14276 14279 28
11424 14276 14280 28
11425 14281 14282 28
11426 14281 14283 28
11427 14281 14284 28
11428 14281 14285 28
11429 14286 14287 28
11430 14286 14288 28
11431 14286 14289 28
11432 14286 14290 28
11433 14291 14292 28
11434 14291 14293 28
11435 14291 14294 28
11436 14291 14295 28
11437 14296 14297 28
11438 14296 14298 28
11439 14296 14299 28
11440 14296 14300 28
11441 14301 14302 28
11442 14301 14303 28
11443 14301 14304 28
11444 14301 14305 28
11445 14306 14307 28
11446 14306 14308 28
11447 14306 14309 28
11448 14306 14310 28
11449 14311 14312 28
11450 14311 14313 28
11451 14311 14314 28
11452 14311 14315 28
11453 14316 14317 28
11454 14316 14318 28
11455 14316 14319 28
11456 14316 14320 28
11457 14321 14322 28
11458 14321 14323 28
11459 14321 14324 28
11460 14321 14325 28
11461 14326 14327 28
11462 14326 14328 28
11463 14326 14329 28
11464 14326 14330 28
11465 14331 14332 28
11466 14331 14333 28
11467 14331 14334 28
11468 14331 14335 28
11469 14336 14337 28
11470 14336 14338 28
11471 14336 14339 28
11472 14336 14340 28
11473 14341 14342 28
11474 14341 14343 28
11475 14341 14344 28
11476 14341 14345 28
11477 14346 14347 28
11478 14346 14348 28
11479 14346 14349 28
11480 14346 14350 28
11481 14351 14352 28
11482 14351 14353 28
11483 14351 14354 28
11484 14351 14355 28
11485 14356 14357 28
11486 14356 14358 28
11487 14356 14359 28
11488 14356 14360 28
11489 14361 14362 28
11490 14361 14363 28
11491 14361 14364 28
11492 14361 14365 28
11493 14366 14367 28
11494 14366 14368 28
11495 14366 14369 28
11496 14366 14370 28
11497 14371 14372 28
11498 14371 14373 28
11499 14371 14374 28
11500 14371 14375 28
11501 14376 14377 28
11502 14376 14378 28
11503 14376 14379 28
11504 14376 14380 28
11505 14381 14382 28
11506 14381 14383 28
11507 14381 14384 28
11508 14381 14385 28
11509 14386 14387 28
11510 14386 14388 28
11511 14386 14389 28
11512 14386 14390 28
11513 14391 14392 28
11514 14391 14393 28
11515 14391 14394 28
11516 14391 14395 28
11517 14396 14397 28
11518 14396 14398 28
11519 14396 14399 28
11520 14396 14400 28
11521 14401 14402 28
11522 14401 14403 28
11523 14401 14404 28
11524 14401 14405 28
11525 14406 14407 28
11526 14406 14408 28
11527 14406 14409 28
11528 14406 14410 28
11529 14411 14412 28
11530 14411 14413 28
11531 14411 14414 28
11532 14411 14415 28
11533 14416 14417 28
11534 14416 14418 28
11535 14416 14419 28
11536 14416 14420 28
11537 14421 14422 28
11538 14421 14423 28
11539 14421 14424 28
11540 14421 14425 28
11541 14426 14427 28
11542 14426 14428 28
11543 14426 14429 28
11544 14426 14430 28
11545 14431 14432 28
11546 14431 14433 28
11547 14431 14434 28
11548 14431 14435 28
11549 14436 14437 28
11550 14436 14438 28
11551 14436 14439 28
11552 14436 14440 28
11553 14441 14442 28
11554 14441 14443 28
11555 14441 14444 28
11556 14441 14445 28
11557 14446 14447 28
11558 14446 14448 28
11559 14446 14449 28
11560 14446 14450 28
11561 14451 14452 28
11562 14451 14453 28
11563 14451 14454 28
11564 14451 14455 28
11565 14456 14457 28
11566 14456 14458 28
11567 14456 14459 28
11568 14456 14460 28
11569 14461 14462 28
11570 14461 14463 28
11571 14461 14464 28
11572 14461 14465 28
11573 14466 14467 28
11574 14466 14468 28
11575 14466 14469 28
11576 14466 14470 28
11577 14471 14472 28
11578 14471 14473 28
11579 14471 14474 28
11580 14471 14475 28
11581 14476 14477 28
11582 14476 14478 28
11583 14476 14479 28
11584 14476 14480 28
11585 14481 14482 28
11586 14481 14483 28
11587 14481 14484 28
11588 14481 14485 28
11589 14486 14487 28
11590 14486 14488 28
11591 14486 14489 28
11592 14486 14490 28
11593 14491 14492 28
11594 14491 14493 28
11595 14491 14494 28
11596 14491 14495 28
11597 14496 14497 28
11598 14496 14498 28
11599 14496 14499 28
11600 14496 14500 28
11601 14501 14502 28
11602 14501 14503 28
11603 14501 14504 28
11604 14501 14505 28
11605 14506 14507 28
11606 14506 14508 28
11607 14506 14509 28
11608 14506 14510 28
11609 14511 14512 28
11610 14511 14513 28
11611 14511 14514 28
11612 14511 14515 28
11613 14516 14517 28
11614 14516 14518 28
11615 14516 14519 28
11616 14516 14520 28
11617 14521 14522 28
11618 14521 14523 28
11619 14521 14524 28
11620 14521 14525 28
11621 14526 14527 28
11622 14526 14528 28
11623 14526 14529 28
11624 14526 14530 28
11625 14531 14532 28
11626 14531 14533 28
11627 14531 14534 28
11628 14531 14535 28
11629 14536 14537 28
11630 14536 14538 28
11631 14536 14539 28
11632 14536 14540 28
11633 14541 14542 28
11634 14541 14543 28
11635 14541 14544 28
11636 14541 14545 28
11637 14546 14547 28
11638 14546 14548 28
11639 14546 14549 28
11640 14546 14550 28
11641 14551 14552 28
11642 14551 14553 28
11643 14551 14554 28
11644 14551 14555 28
11645 14556 14557 28
11646 14556 14558 28
11647 14556 14559 28
11648 14556 14560 28
11649 14561 14562 28
11650 14561 14563 28
11651 14561 14564 28
11652 14561 14565 28
11653 14566 14567 28
11654 14566 14568 28
11655 14566 14569 28
11656 14566 14570 28
11657 14571 14572 28
11658 14571 14573 28
11659 14571 14574 28
11660 14571 14575 28
11661 14576 14577 28
11662 14576 14578 28
11663 14576 14579 28
11664 14576 14580 28
11665 14581 14582 28
11666 14581 14583 28
11667 14581 14584 28
11668 14581 14585 28
11669 14586 14587 28
11670 14586 14588 28
11671 14586 14589 28
11672 14586 14590 28
11673 14591 14592 28
11674 14591 14593 28
11675 14591 14594 28
11676 14591 14595 28
11677 14596 14597 28
11678 14596 14598 28
11679 14596 14599 28
11680 14596 14600 28
11681 14601 14602 28
11682 14601 14603 28
11683 14601 14604 28
11684 14601 14605 28
11685 14606 14607 28
11686 14606 14608 28
11687 14606 14609 28
11688 14606 14610 28
11689 14611 14612 28
11690 14611 14613 28
11691 14611 14614 28
11692 14611 14615 28
11693 14616 14617 28
11694 14616 14618 28
11695 14616 14619 28
11696 14616 14620 28
11697 14621 14622 28
11698 14621 14623 28
11699 14621 14624 28
11700 14621 14625 28
11701 14626 14627 28
11702 14626 14628 28
11703 14626 14629 28
11704 14626 14630 28
11705 14631 14632 28
11706 14631 14633 28
11707 14631 14634 28
11708 14631 14635 28
11709 14636 14637 28
11710 14636 14638 28
11711 14636 14639 28
11712 14636 14640 28
11713 14641 14642 28
11714 14641 14643 28
11715 14641 14644 28
11716 14641 14645 28
11717 14646 14647 28
11718 14646 14648 28
11719 14646 14649 28
11720 14646 14650 28
11721 14651 14652 28
11722 14651 14653 28
11723 14651 14654 28
11724 14651 14655 28
11725 14656 14657 28
11726 14656 14658 28
11727 14656 14659 28
11728 14656 14660 28
11729 14661 14662 28
11730 14661 14663 28
11731 14661 14664 28
11732 14661 14665 28
11733 14666 14667 28
11734 14666 14668 28
11735 14666 14669 28
11736 14666 14670 28
11737 14671 14672 28
11738 14671 14673 28
11739 14671 14674 28
11740 14671 14675 28
11741 14676 14677 28
11742 14676 14678 28
11743 14676 14679 28
11744 14676 14680 28
11745 14681 14682 28
11746 14681 14683 28
11747 14681 14684 28
11748 14681 14685 28
11749 14686 14687 28
11750 14686 14688 28
11751 14686 14689 28
11752 14686 14690 28
11753 14691 14692 28
11754 14691 14693 28
11755 14691 14694 28
11756 14691 14695 28
11757 14696 14697 28
11758 14696 14698 28
11759 14696 14699 28
11760 14696 14700 28
11761 14701 14702 28
11762 14701 14703 28
11763 14701 14704 28
11764 14701 14705 28
11765 14706 14707 28
11766 14706 14708 28
11767 14706 14709 28
11768 14706 14710 28
11769 14711 14712 28
11770 14711 14713 28
11771 14711 14714 28
11772 14711 14715 28
11773 14716 14717 28
11774 14716 14718 28
11775 14716 14719 28
11776 14716 14720 28
11777 14721 14722 28
11778 14721 14723 28
11779 14721 14724 28
11780 14721 14725 28
11781 14726 14727 28
11782 14726 14728 28
11783 14726 14729 28
11784 14726 14730 28
11785 14731 14732 28
11786 14731 14733 28
11787 14731 14734 28
11788 14731 14735 28
11789 14736 14737 28
11790 14736 14738 28
11791 14736 14739 28
11792 14736 14740 28
11793 14741 14742 28
11794 14741 14743 28
11795 14741 14744 28
11796 14741 14745 28
11797 14746 14747 28
11798 14746 14748 28
11799 14746 14749 28
11800 14746 14750 28
11801 14751 14752 28
11802 14751 14753 28
11803 14751 14754 28
11804 14751 14755 28
11805 14756 14757 28
11806 14756 14758 28
11807 14756 14759 28
11808 14756 14760 28
11809 14761 14762 28
11810 14761 14763 28
11811 14761 14764 28
11812 14761 14765 28
11813 14766 14767 28
11814 14766 14768 28
11815 14766 14769 28
11816 14766 14770 28
11817 14771 14772 28
11818 14771 14773 28
11819 14771 14774 28
11820 14771 14775 28
11821 14776 14777 28
11822 14776 14778 28
11823 14776 14779 28
11824 14776 14780 28
11825 14781 14782 28
11826 14781 14783 28
11827 14781 14784 28
11828 14781 14785 28
11829 14786 14787 28
11830 14786 14788 28
11831 14786 14789 28
11832 14786 14790 28
11833 14791 14792 28
11834 14791 14793 28
11835 14791 14794 28
11836 14791 14795 28
11837 14796 14797 28
11838 14796 14798 28
11839 14796 14799 28
11840 14796 14800 28
11841 14801 14802 28
11842 14801 14803 28
11843 14801 14804 28
11844 14801 14805 28
11845 14806 14807 28
11846 14806 14808 28
11847 14806 14809 28
11848 14806 14810 28
11849 14811 14812 28
11850 14811 14813 28
11851 14811 14814 28
11852 14811 14815 28
11853 14816 14817 28
11854 14816 14818 28
11855 14816 14819 28
11856 14816 14820 28
11857 14821 14822 28
11858 14821 14823 28
11859 14821 14824 28
11860 14821 14825 28
11861 14826 14827 28
11862 14826 14828 28
11863 14826 14829 28
11864 14826 14830 28
11865 14831 14832 28
11866 14831 14833 28
11867 14831 14834 28
11868 14831 14835 28
11869 14836 14837 28
11870 14836 14838 28
11871 14836 14839 28
11872 14836 14840 28
11873 14841 14842 28
11874 14841 14843 28
11875 14841 14844 28
11876 14841 14845 28
11877 14846 14847 28
11878 14846 14848 28
11879 14846 14849 28
11880 14846 14850 28
11881 14851 14852 28
11882 14851 14853 28
11883 14851 14854 28
11884 14851 14855 28
11885 14856 14857 28
11886 14856 14858 28
11887 14856 14859 28
11888 14856 14860 28
11889 14861 14862 28
11890 14861 14863 28
11891 14861 14864 28
11892 14861 14865 28
11893 14866 14867 28
11894 14866 14868 28
11895 14866 14869 28
11896 14866 14870 28
11897 14871 14872 28
11898 14871 14873 28
11899 14871 14874 28
11900 14871 14875 28
11901 14876 14877 28
11902 14876 14878 28
11903 14876 14879 28
11904 14876 14880 28
11905 14881 14882 28
11906 14881 14883 28
11907 14881 14884 28
11908 14881 14885 28
11909 14886 14887 28
11910 14886 14888 28
11911 14886 14889 28
11912 14886 14890 28
11913 14891 14892 28
11914 14891 14893 28
11915 14891 14894 28
11916 14891 14895 28
11917 14896 14897 28
11918 14896 14898 28
11919 14896 14899 28
11920 14896 14900 28
11921 14901 14902 28
11922 14901 14903 28
11923 14901 14904 28
11924 14901 14905 28
11925 14906 14907 28
11926 14906 14908 28
11927 14906 14909 28
11928 14906 14910 28
11929 14911 14912 28
11930 14911 14913 28
11931 14911 14914 28
11932 14911 14915 28
11933 14916 14917 28
11934 14916 14918 28
11935 14916 14919 28
11936 14916 14920 28
11937 14921 14922 28
11938 14921 14923 28
11939 14921 14924 28
11940 14921 14925 28
11941 14926 14927 28
11942 14926 14928 28
11943 14926 14929 28
11944 14926 14930 28
11945 14931 14932 28
11946 14931 14933 28
11947 14931 14934 28
11948 14931 14935 28
11949 14936 14937 28
11950 14936 14938 28
11951 14936 14939 28
11952 14936 14940 28
11953 14941 14942 28
11954 14941 14943 28
11955 14941 14944 28
11956 14941 14945 28
11957 14946 14947 28
11958 14946 14948 28
11959 14946 14949 28
11960 14946 14950 28
11961 14951 14952 28
11962 14951 14953 28
11963 14951 14954 28
11964 14951 14955 28
11965 14956 14957 28
11966 14956 14958 28
11967 14956 14959 28
11968 14956 14960 28
11969 14961 14962 28
11970 14961 14963 28
11971 14961 14964 28
11972 14961 14965 28
11973 14966 14967 28
11974 14966 14968 28
11975 14966 14969 28
11976 14966 14970 28
11977 14971 14972 28
11978 14971 14973 28
11979 14971 14974 28
11980 14971 14975 28
11981 14976 14977 28
11982 14976 14978 28
11983 14976 14979 28
11984 14976 14980 28
11985 14981 14982 28
11986 14981 14983 28
11987 14981 14984 28
11988 14981 14985 28
11989 14986 14987 28
11990 14986 14988 28
11991 14986 14989 28
11992 14986 14990 28
11993 14991 14992 28
11994 14991 14993 28
11995 14991 14994 28
11996 14991 14995 28
11997 14996 14997 28
11998 14996 14998 28
11999 14996 14999 28
12000 14996 15000 28
12001 15001 15002 28
12002 15001 15003 28
12003 15001 15004 28
12004 15001 15005 28
12005 15006 15007 28
12006 15006 15008 28
12007 15006 15009 28
12008 15006 15010 28
12009 15011 15012 28
12010 15011 15013 28
12011 15011 15014 28
12012 15011 15015 28
12013 15016 15017 28
12014 15016 15018 28
12015 15016 15019 28
12016 15016 15020 28
12017 15021 15022 28
12018 15021 15023 28
12019 15021 15024 28
12020 15021 15025 28
12021 15026 15027 28
12022 15026 15028 28
12023 15026 15029 28
12024 15026 15030 28
12025 15031 15032 28
12026 15031 15033 28
12027 15031 15034 28
12028 15031 15035 28
12029 15036 15037 28
12030 15036 15038 28
12031 15036 15039 28
12032 15036 15040 28
12033 15041 15042 28
12034 15041 15043 28
12035 15041 15044 28
12036 15041 15045 28
12037 15046 15047 28
12038 15046 15048 28
12039 15046 15049 28
12040 15046 15050 28
12041 15051 15052 28
12042 15051 15053 28
12043 15051 15054 28
12044 15051 15055 28
12045 15056 15057 28
12046 15056 15058 28
12047 15056 15059 28
12048 15056 15060 28
12049 15061 15062 28
12050 15061 15063 28
12051 15061 15064 28
12052 15061 15065 28
12053 15066 15067 28
12054 15066 15068 28
12055 15066 15069 28
12056 15066 15070 28
12057 15071 15072 28
12058 15071 15073 28
12059 15071 15074 28
12060 15071 15075 28
12061 15076 15077 28
12062 15076 15078 28
12063 15076 15079 28
12064 15076 15080 28
12065 15081 15082 28
12066 15081 15083 28
12067 15081 15084 28
12068 15081 15085 28
12069 15086 15087 28
12070 15086 15088 28
12071 15086 15089 28
12072 15086 15090 28
12073 15091 15092 28
12074 15091 15093 28
12075 15091 15094 28
12076 15091 15095 28
12077 15096 15097 28
12078 15096 15098 28
12079 15096 15099 28
12080 15096 15100 28
12081 15101 15102 28
12082 15101 15103 28
12083 15101 15104 28
12084 15101 15105 28
12085 15106 15107 28
12086 15106 15108 28
12087 15106 15109 28
12088 15106 15110 28
12089 15111 15112 28
12090 15111 15113 28
12091 15111 15114 28
12092 15111 15115 28
12093 15116 15117 28
12094 15116 15118 28
12095 15116 15119 28
12096 15116 15120 28
12097 15121 15122 28
12098 15121 15123 28
12099 15121 15124 28
12100 15121 15125 28
12101 15126 15127 28
12102 15126 15128 28
12103 15126 15129 28
12104 15126 15130 28
12105 15131 15132 28
12106 15131 15133 28
12107 15131 15134 28
12108 15131 15135 28
12109 15136 15137 28
12110 15136 15138 28
12111 15136 15139 28
12112 15136 15140 28
12113 15141 15142 28
12114 15141 15143 28
12115 15141 15144 28
12116 15141 15145 28
12117 15146 15147 28
12118 15146 15148 28
12119 15146 15149 28
12120 15146 15150 28
12121 15151 15152 28
12122 15151 15153 28
12123 15151 15154 28
12124 15151 15155 28
12125 15156 15157 28
12126 15156 15158 28
12127 15156 15159 28
12128 15156 15160 28
12129 15161 15162 28
12130 15161 15163 28
12131 15161 15164 28
12132 15161 15165 28
12133 15166 15167 28
12134 15166 15168 28
12135 15166 15169 28
12136 15166 15170 28
12137 15171 15172 28
12138 15171 15173 28
12139 15171 15174 28
12140 15171 15175 28
12141 15176 15177 28
12142 15176 15178 28
12143 15176 15179 28
12144 15176 15180 28
12145 15181 15182 28
12146 15181 15183 28
12147 15181 15184 28
12148 15181 15185 28
12149 15186 15187 28
12150 15186 15188 28
12151 15186 15189 28
12152 15186 15190 28
12153 15191 15192 28
12154 15191 15193 28
12155 15191 15194 28
12156 15191 15195 28
12157 15196 15197 28
12158 15196 15198 28
12159 15196 15199 28
12160 15196 15200 28
12161 15201 15202 28
12162 15201 15203 28
12163 15201 15204 28
12164 15201 15205 28
12165 15206 15207 28
12166 15206 15208 28
12167 15206 15209 28
12168 15206 15210 28
12169 15211 15212 28
12170 15211 15213 28
12171 15211 15214 28
12172 15211 15215 28
12173 15216 15217 28
12174 15216 15218 28
12175 15216 15219 28
12176 15216 15220 28
12177 15221 15222 28
12178 15221 15223 28
12179 15221 15224 28
12180 15221 15225 28
12181 15226 15227 28
12182 15226 15228 28
12183 15226 15229 28
12184 15226 15230 28
12185 15231 15232 28
12186 15231 15233 28
12187 15231 15234 28
12188 15231 15235 28
12189 15236 15237 28
12190 15236 15238 28
12191 15236 15239 28
12192 15236 15240 28
12193 15241 15242 28
12194 15241 15243 28
12195 15241 15244 28
12196 15241 15245 28
12197 15246 15247 28
12198 15246 15248 28
12199 15246 15249 28
12200 15246 15250 28
12201 15251 15252 28
12202 15251 15253 28
12203 15251 15254 28
12204 15251 15255 28
12205 15256 15257 28
12206 15256 15258 28
12207 15256 15259 28
12208 15256 15260 28
12209 15261 15262 28
12210 15261 15263 28
12211 15261 15264 28
12212 15261 15265 28
12213 15266 15267 28
12214 15266 15268 28
12215 15266 15269 28
12216 15266 15270 28
12217 15271 15272 28
12218 15271 15273 28
12219 15271 15274 28
12220 15271 15275 28
12221 15276 15277 28
12222 15276 15278 28
12223 15276 15279 28
12224 15276 15280 28
12225 15281 15282 28
12226 15281 15283 28
12227 15281 15284 28
12228 15281 15285 28
12229 15286 15287 28
12230 15286 15288 28
12231 15286 15289 28
12232 15286 15290 28
12233 15291 15292 28
12234 15291 15293 28
12235 15291 15294 28
12236 15291 15295 28
12237 15296 15297 28
12238 15296 15298 28
12239 15296 15299 28
12240 15296 15300 28
12241 15301 15302 28
12242 15301 15303 28
12243 15301 15304 28
12244 15301 15305 28
12245 15306 15307 28
12246 15306 15308 28
12247 15306 15309 28
12248 15306 15310 28
12249 15311 15312 28
12250 15311 15313 28
12251 15311 15314 28
12252 15311 15315 28
12253 15316 15317 28
12254 15316 15318 28
12255 15316 15319 28
12256 15316 15320 28
12257 15321 15322 28
12258 15321 15323 28
12259 15321 15324 28
12260 15321 15325 28
12261 15326 15327 28
12262 15326 15328 28
12263 15326 15329 28
12264 15326 15330 28
12265 15331 15332 28
12266 15331 15333 28
12267 15331 15334 28
12268 15331 15335 28
12269 15336 15337 28
12270 15336 15338 28
12271 15336 15339 28
12272 15336 15340 28
12273 15341 15342 28
12274 15341 15343 28
12275 15341 15344 28
12276 15341 15345 28
12277 15346 15347 28
12278 15346 15348 28
12279 15346 15349 28
12280 15346 15350 28
12281 15351 15352 28
12282 15351 15353 28
12283 15351 15354 28
12284 15351 15355 28
12285 15356 15357 28
12286 15356 15358 28
12287 15356 15359 28
12288 15356 15360 28
12289 15361 15362 28
12290 15361 15363 28
12291 15361 15364 28
12292 15361 15365 28
12293 15366 15367 28
12294 15366 15368 28
12295 15366 15369 28
12296 15366 15370 28
12297 15371 15372 28
12298 15371 15373 28
12299 15371 15374 28
12300 15371 15375 28
12301 15376 15377 28
12302 15376 15378 28
12303 15376 15379 28
12304 15376 15380 28
12305 15381 15382 28
12306 15381 15383 28
12307 15381 15384 28
12308 15381 15385 28
12309 15386 15387 28
12310 15386 15388 28
12311 15386 15389 28
12312 15386 15390 28
12313 15391 15392 28
12314 15391 15393 28
12315 15391 15394 28
12316 15391 15395 28
12317 15396 15397 28
12318 15396 15398 28
12319 15396 15399 28
12320 15396 15400 28
12321 15401 15402 28
12322 15401 15403 28
12323 15401 15404 28
12324 15401 15405 28
12325 15406 15407 28
12326 15406 15408 28
12327 15406 15409 28
12328 15406 15410 28
12329 15411 15412 28
12330 15411 15413 28
12331 15411 15414 28
12332 15411 15415 28
12333 15416 15417 28
12334 15416 15418 28
12335 15416 15419 28
12336 15416 15420 28
12337 15421 15422 28
12338 15421 15423 28
12339 15421 15424 28
12340 15421 15425 28
12341 15426 15427 28
12342 15426 15428 28
12343 15426 15429 28
12344 15426 15430 28
12345 15431 15432 28
12346 15431 15433 28
12347 15431 15434 28
12348 15431 15435 28
12349 15436 15437 28
12350 15436 15438 28
12351 15436 15439 28
12352 15436 15440 28
12353 15441 15442 28
12354 15441 15443 28
12355 15441 15444 28
12356 15441 15445 28
12357 15446 15447 28
12358 15446 15448 28
12359 15446 15449 28
12360 15446 15450 28
12361 15451 15452 28
12362 15451 15453 28
12363 15451 15454 28
12364 15451 15455 28
12365 15456 15457 28
12366 15456 15458 28
12367 15456 15459 28
12368 15456 15460 28
12369 15461 15462 28
12370 15461 15463 28
12371 15461 15464 28
12372 15461 15465 28
12373 15466 15467 28
12374 15466 15468 28
12375 15466 15469 28
12376 15466 15470 28
12377 15471 15472 28
12378 15471 15473 28
12379 15471 15474 28
12380 15471 15475 28
12381 15476 15477 28
12382 15476 15478 28
12383 15476 15479 28
12384 15476 15480 28
12385 15481 15482 28
12386 15481 15483 28
12387 15481 15484 28
12388 15481 15485 28
12389 15486 15487 28
12390 15486 15488 28
12391 15486 15489 28
12392 15486 15490 28
12393 15491 15492 28
12394 15491 15493 28
12395 15491 15494 28
12396 15491 15495 28
12397 15496 15497 28
12398 15496 15498 28
12399 15496 15499 28
12400 15496 15500 28
12401 15501 15502 28
12402 15501 15503 28
12403 15501 15504 28
12404 15501 15505 28
12405 15506 15507 28
12406 15506 15508 28
12407 15506 15509 28
12408 15506 15510 28
12409 15511 15512 28
12410 15511 15513 28
12411 15511 15514 28
12412 15511 15515 28
12413 15516 15517 28
12414 15516 15518 28
12415 15516 15519 28
12416 15516 15520 28
12417 15521 15522 28
12418 15521 15523 28
12419 15521 15524 28
12420 15521 15525 28
12421 15526 15527 28
12422 15526 15528 28
12423 15526 15529 28
12424 15526 15530 28
12425 15531 15532 28
12426 15531 15533 28
12427 15531 15534 28
12428 15531 15535 28
12429 15536 15537 28
12430 15536 15538 28
12431 15536 15539 28
12432 15536 15540 28
12433 15541 15542 28
12434 15541 15543 28
12435 15541 15544 28
12436 15541 15545 28
12437 15546 15547 28
12438 15546 15548 28
12439 15546 15549 28
12440 15546 15550 28
12441 15551 15552 28
12442 15551 15553 28
12443 15551 15554 28
12444 15551 15555 28
12445 15556 15557 28
12446 15556 15558 28
12447 15556 15559 28
12448 15556 15560 28
12449 15561 15562 28
12450 15561 15563 28
12451 15561 15564 28
12452 15561 15565 28
12453 15566 15567 28
12454 15566 15568 28
12455 15566 15569 28
12456 15566 15570 28
12457 15571 15572 28
12458 15571 15573 28
12459 15571 15574 28
12460 15571 15575 28
12461 15576 15577 28
12462 15576 15578 28
12463 15576 15579 28
12464 15576 15580 28
12465 15581 15582 28
12466 15581 15583 28
12467 15581 15584 28
12468 15581 15585 28
12469 15586 15587 28
12470 15586 15588 28
12471 15586 15589 28
12472 15586 15590 28
12473 15591 15592 28
12474 15591 15593 28
12475 15591 15594 28
12476 15591 15595 28
12477 15596 15597 28
12478 15596 15598 28
12479 15596 15599 28
12480 15596 15600 28
12481 15601 15602 28
12482 15601 15603 28
12483 15601 15604 28
12484 15601 15605 28
12485 15606 15607 28
12486 15606 15608 28
12487 15606 15609 28
12488 15606 15610 28
12489 15611 15612 28
12490 15611 15613 28
12491 15611 15614 28
12492 15611 15615 28
12493 15616 15617 28
12494 15616 15618 28
12495 15616 15619 28
12496 15616 15620 28
12497 15621 15622 28
12498 15621 15623 28
12499 15621 15624 28
12500 15621 15625 28
12501 15626 15627 28
12502 15626 15628 28
12503 15626 15629 28
12504 15626 15630 28
12505 15631 15632 28
12506 15631 15633 28
12507 15631 15634 28
12508 15631 15635 28
12509 15636 15637 28
12510 15636 15638 28
12511 15636 15639 28
12512 15636 15640 28
12513 15641 15642 28
12514 15641 15643 28
12515 15641 15644 28
12516 15641 15645 28
12517 15646 15647 28
12518 15646 15648 28
12519 15646 15649 28
12520 15646 15650 28
12521 15651 15652 28
12522 15651 15653 28
12523 15651 15654 28
12524 15651 15655 28
12525 15656 15657 28
12526 15656 15658 28
12527 15656 15659 28
12528 15656 15660 28
12529 15661 15662 28
12530 15661 15663 28
12531 15661 15664 28
12532 15661 15665 28
12533 15666 15667 28
12534 15666 15668 28
12535 15666 15669 28
12536 15666 15670 28
12537 15671 15672 28
12538 15671 15673 28
12539 15671 15674 28
12540 15671 15675 28
12541 15676 15677 28
12542 15676 15678 28
12543 15676 15679 28
12544 15676 15680 28
12545 15681 15682 28
12546 15681 15683 28
12547 15681 15684 28
12548 15681 15685 28
12549 15686 15687 28
12550 15686 15688 28
12551 15686 15689 28
12552 15686 15690 28
12553 15691 15692 28
12554 15691 15693 28
12555 15691 15694 28
12556 15691 15695 28
12557 15696 15697 28
12558 15696 15698 28
12559 15696 15699 28
12560 15696 15700 28
12561 15701 15702 28
12562 15701 15703 28
12563 15701 15704 28
12564 15701 15705 28
12565 15706 15707 28
12566 15706 15708 28
12567 15706 15709 28
12568 15706 15710 28
12569 15711 15712 28
12570 15711 15713 28
12571 15711 15714 28
12572 15711 15715 28
12573 15716 15717 28
12574 15716 15718 28
12575 15716 15719 28
12576 15716 15720 28
12577 15721 15722 28
12578 15721 15723 28
12579 15721 15724 28
12580 15721 15725 28
12581 15726 15727 28
12582 15726 15728 28
12583 15726 15729 28
12584 15726 15730 28
12585 15731 15732 28
12586 15731 15733 28
12587 15731 15734 28
12588 15731 15735 28
12589 15736 15737 28
12590 15736 15738 28
12591 15736 15739 28
12592 15736 15740 28
12593 15741 15742 28
12594 15741 15743 28
12595 15741 15744 28
12596 15741 15745 28
12597 15746 15747 28
12598 15746 15748 28
12599 15746 15749 28
12600 15746 15750 28
12601 15751 15752 28
12602 15751 15753 28
12603 15751 15754 28
12604 15751 15755 28
12605 15756 15757 28
12606 15756 15758 28
12607 15756 15759 28
12608 15756 15760 28
12609 15761 15762 28
12610 15761 15763 28
12611 15761 15764 28
12612 15761 15765 28
12613 15766 15767 28
12614 15766 15768 28
12615 15766 15769 28
12616 15766 15770 28
12617 15771 15772 28
12618 15771 15773 28
12619 15771 15774 28
12620 15771 15775 28
12621 15776 15777 28
12622 15776 15778 28
12623 15776 15779 28
12624 15776 15780 28
12625 15781 15782 28
12626 15781 15783 28
12627 15781 15784 28
12628 15781 15785 28
12629 15786 15787 28
12630 15786 15788 28
12631 15786 15789 28
12632 15786 15790 28
12633 15791 15792 28
12634 15791 15793 28
12635 15791 15794 28
12636 15791 15795 28
12637 15796 15797 28
12638 15796 15798 28
12639 15796 15799 28
12640 15796 15800 28
12641 15801 15802 28
12642 15801 15803 28
12643 15801 15804 28
12644 15801 15805 28
12645 15806 15807 28
12646 15806 15808 28
12647 15806 15809 28
12648 15806 15810 28
12649 15811 15812 28
12650 15811 15813 28
12651 15811 15814 28
12652 15811 15815 28
12653 15816 15817 28
12654 15816 15818 28
12655 15816 15819 28
12656 15816 15820 28
12657 15821 15822 28
12658 15821 15823 28
12659 15821 15824 28
12660 15821 15825 28
12661 15826 15827 28
12662 15826 15828 28
12663 15826 15829 28
12664 15826 15830 28
12665 15831 15832 28
12666 15831 15833 28
12667 15831 15834 28
12668 15831 15835 28
12669 15836 15837 28
12670 15836 15838 28
12671 15836 15839 28
12672 15836 15840 28
12673 15841 15842 28
12674 15841 15843 28
12675 15841 15844 28
12676 15841 15845 28
12677 15846 15847 28
12678 15846 15848 28
12679 15846 15849 28
12680 15846 15850 28
12681 15851 15852 28
12682 15851 15853 28
12683 15851 15854 28
12684 15851 15855 28
12685 15856 15857 28
12686 15856 15858 28
12687 15856 15859 28
12688 15856 15860 28
12689 15861 15862 28
12690 15861 15863 28
12691 15861 15864 28
12692 15861 15865 28
12693 15866 15867 28
12694 15866 15868 28
12695 15866 15869 28
12696 15866 15870 28
12697 15871 15872 28
12698 15871 15873 28
12699 15871 15874 28
12700 15871 15875 28
12701 15876 15877 28
12702 15876 15878 28
12703 15876 15879 28
12704 15876 15880 28
12705 15881 15882 28
12706 15881 15883 28
12707 15881 15884 28
12708 15881 15885 28
12709 15886 15887 28
12710 15886 15888 28
12711 15886 15889 28
12712 15886 15890 28
12713 15891 15892 28
12714 15891 15893 28
12715 15891 15894 28
12716 15891 15895 28
12717 15896 15897 28
12718 15896 15898 28
12719 15896 15899 28
12720 15896 15900 28
12721 15901 15902 28
12722 15901 15903 28
12723 15901 15904 28
12724 15901 15905 28
12725 15906 15907 28
12726 15906 15908 28
12727 15906 15909 28
12728 15906 15910 28
12729 15911 15912 28
12730 15911 15913 28
12731 15911 15914 28
12732 15911 15915 28
12733 15916 15917 28
12734 15916 15918 28
12735 15916 15919 28
12736 15916 15920 28
12737 15921 15922 28
12738 15921 15923 28
12739 15921 15924 28
12740 15921 15925 28
12741 15926 15927 28
12742 15926 15928 28
12743 15926 15929 28
12744 15926 15930 28
12745 15931 15932 28
12746 15931 15933 28
12747 15931 15934 28
12748 15931 15935 28
12749 15936 15937 28
12750 15936 15938 28
12751 15936 15939 28
12752 15936 15940 28
12753 15941 15942 28
12754 15941 15943 28
12755 15941 15944 28
12756 15941 15945 28
12757 15946 15947 28
12758 15946 15948 28
12759 15946 15949 28
12760 15946 15950 28
12761 15951 15952 28
12762 15951 15953 28
12763 15951 15954 28
12764 15951 15955 28
12765 15956 15957 28
12766 15956 15958 28
12767 15956 15959 28
12768 15956 15960 28
12769 15961 15962 28
12770 15961 15963 28
12771 15961 15964 28
12772 15961 15965 28
12773 15966 15967 28
12774 15966 15968 28
12775 15966 15969 28
12776 15966 15970 28
12777 15971 15972 28
12778 15971 15973 28
12779 15971 15974 28
12780 15971 15975 28
12781 15976 15977 28
12782 15976 15978 28
12783 15976 15979 28
12784 15976 15980 28
12785 15981 15982 28
12786 15981 15983 28
12787 15981 15984 28
12788 15981 15985 28
12789 15986 15987 28
12790 15986 15988 28
12791 15986 15989 28
12792 15986 15990 28
12793 15991 15992 28
12794 15991 15993 28
12795 15991 15994 28
12796 15991 15995 28
12797 15996 15997 28
12798 15996 15998 28
12799 15996 15999 28
12800 15996 16000 28
12801 16001 16002 28
12802 16001 16003 28
12803 16001 16004 28
12804 16001 16005 28
12805 16006 16007 28
12806 16006 16008 28
12807 16006 16009 28
12808 16006 16010 28
12809 16011 16012 28
12810 16011 16013 28
12811 16011 16014 28
12812 16011 16015 28
12813 16016 16017 28
12814 16016 16018 28
12815 16016 16019 28
12816 16016 16020 28
12817 16021 16022 28
12818 16021 16023 28
12819 16021 16024 28
12820 16021 16025 28
12821 16026 16027 28
12822 16026 16028 28
12823 16026 16029 28
12824 16026 16030 28
12825 16031 16032 28
12826 16031 16033 28
12827 16031 16034 28
12828 16031 16035 28
12829 16036 16037 28
12830 16036 16038 28
12831 16036 16039 28
12832 16036 16040 28
12833 16041 16042 28
12834 16041 16043 28
12835 16041 16044 28
12836 16041 16045 28
12837 16046 16047 28
12838 16046 16048 28
12839 16046 16049 28
12840 16046 16050 28
12841 16051 16052 28
12842 16051 16053 28
12843 16051 16054 28
12844 16051 16055 28
12845 16056 16057 28
12846 16056 16058 28
12847 16056 16059 28
12848 16056 16060 28
12849 16061 16062 28
12850 16061 16063 28
12851 16061 16064 28
12852 16061 16065 28
12853 16066 16067 28
12854 16066 16068 28
12855 16066 16069 28
12856 16066 16070 28
12857 16071 16072 28
12858 16071 16073 28
12859 16071 16074 28
12860 16071 16075 28
12861 16076 16077 28
12862 16076 16078 28
12863 16076 16079 28
12864 16076 16080 28
12865 16081 16082 28
12866 16081 16083 28
12867 16081 16084 28
12868 16081 16085 28
12869 16086 16087 28
12870 16086 16088 28
12871 16086 16089 28
12872 16086 16090 28
12873 16091 16092 28
12874 16091 16093 28
12875 16091 16094 28
12876 16091 16095 28
12877 16096 16097 28
12878 16096 16098 28
12879 16096 16099 28
12880 16096 16100 28
12881 16101 16102 28
12882 16101 16103 28
12883 16101 16104 28
12884 16101 16105 28
12885 16106 16107 28
12886 16106 16108 28
12887 16106 16109 28
12888 16106 16110 28
12889 16111 16112 28
12890 16111 16113 28
12891 16111 16114 28
12892 16111 16115 28
12893 16116 16117 28
12894 16116 16118 28
12895 16116 16119 28
12896 16116 16120 28
12897 16121 16122 28
12898 16121 16123 28
12899 16121 16124 28
12900 16121 16125 28
12901 16126 16127 28
12902 16126 16128 28
12903 16126 16129 28
12904 16126 16130 28
12905 16131 16132 28
12906 16131 16133 28
12907 16131 16134 28
12908 16131 16135 28
12909 16136 16137 28
12910 16136 16138 28
12911 16136 16139 28
12912 16136 16140 28
12913 16141 16142 28
12914 16141 16143 28
12915 16141 16144 28
12916 16141 16145 28
12917 16146 16147 28
12918 16146 16148 28
12919 16146 16149 28
12920 16146 16150 28
12921 16151 16152 28
12922 16151 16153 28
12923 16151 16154 28
12924 16151 16155 28
12925 16156 16157 28
12926 16156 16158 28
12927 16156 16159 28
12928 16156 16160 28
12929 16161 16162 28
12930 16161 16163 28
12931 16161 16164 28
12932 16161 16165 28
12933 16166 16167 28
12934 16166 16168 28
12935 16166 16169 28
12936 16166 16170 28
12937 16171 16172 28
12938 16171 16173 28
12939 16171 16174 28
12940 16171 16175 28
12941 16176 16177 28
12942 16176 16178 28
12943 16176 16179 28
12944 16176 16180 28
12945 16181 16182 28
12946 16181 16183 28
12947 16181 16184 28
12948 16181 16185 28
12949 16186 16187 28
12950 16186 16188 28
12951 16186 16189 28
12952 16186 16190 28
12953 16191 16192 28
12954 16191 16193 28
12955 16191 16194 28
12956 16191 16195 28
12957 16196 16197 28
12958 16196 16198 28
12959 16196 16199 28
12960 16196 16200 28
12961 16201 16202 28
12962 16201 16203 28
12963 16201 16204 28
12964 16201 16205 28
12965 16206 16207 28
12966 16206 16208 28
12967 16206 16209 28
12968 16206 16210 28
12969 16211 16212 28
12970 16211 16213 28
12971 16211 16214 28
12972 16211 16215 28
12973 16216 16217 28
12974 16216 16218 28
12975 16216 16219 28
12976 16216 16220 28
12977 16221 16222 28
12978 16221 16223 28
12979 16221 16224 28
12980 16221 16225 28
12981 16226 16227 28
12982 16226 16228 28
12983 16226 16229 28
12984 16226 16230 28
12985 16231 16232 28
12986 16231 16233 28
12987 16231 16234 28
12988 16231 16235 28
12989 16236 16237 28
12990 16236 16238 28
12991 16236 16239 28
12992 16236 16240 28
12993 16241 16242 28
12994 16241 16243 28
12995 16241 16244 28
12996 16241 16245 28
12997 16246 16247 28
12998 16246 16248 28
12999 16246 16249 28
13000 16246 16250 28
13001 16251 16252 28
13002 16251 16253 28
13003 16251 16254 28
13004 16251 16255 28
13005 16256 16257 28
13006 16256 16258 28
13007 16256 16259 28
13008 16256 16260 28
13009 16261 16262 28
13010 16261 16263 28
13011 16261 16264 28
13012 16261 16265 28
13013 16266 16267 28
13014 16266 16268 28
13015 16266 16269 28
13016 16266 16270 28
13017 16271 16272 28
13018 16271 16273 28
13019 16271 16274 28
13020 16271 16275 28
13021 16276 16277 28
13022 16276 16278 28
13023 16276 16279 28
13024 16276 16280 28
13025 16281 16282 28
13026 16281 16283 28
13027 16281 16284 28
13028 16281 16285 28
13029 16286 16287 28
13030 16286 16288 28
13031 16286 16289 28
13032 16286 16290 28
13033 16291 16292 28
13034 16291 16293 28
13035 16291 16294 28
13036 16291 16295 28
13037 16296 16297 28
13038 16296 16298 28
13039 16296 16299 28
13040 16296 16300 28
13041 16301 16302 28
13042 16301 16303 28
13043 16301 16304 28
13044 16301 16305 28
13045 16306 16307 28
13046 16306 16308 28
13047 16306 16309 28
13048 16306 16310 28
13049 16311 16312 28
13050 16311 16313 28
13051 16311 16314 28
13052 16311 16315 28
13053 16316 16317 28
13054 16316 16318 28
13055 16316 16319 28
13056 16316 16320 28
13057 16321 16322 28
13058 16321 16323 28
13059 16321 16324 28
13060 16321 16325 28
13061 16326 16327 28
13062 16326 16328 28
13063 16326 16329 28
13064 16326 16330 28
13065 16331 16332 28
13066 16331 16333 28
13067 16331 16334 28
13068 16331 16335 28
13069 16336 16337 28
13070 16336 16338 28
13071 16336 16339 28
13072 16336 16340 28
13073 16341 16342 28
13074 16341 16343 28
13075 16341 16344 28
13076 16341 16345 28
13077 16346 16347 28
13078 16346 16348 28
13079 16346 16349 28
13080 16346 16350 28
13081 16351 16352 28
13082 16351 16353 28
13083 16351 16354 28
13084 16351 16355 28
13085 16356 16357 28
13086 16356 16358 28
13087 16356 16359 28
13088 16356 16360 28
13089 16361 16362 28
13090 16361 16363 28
13091 16361 16364 28
13092 16361 16365 28
13093 16366 16367 28
13094 16366 16368 28
13095 16366 16369 28
13096 16366 16370 28
13097 16371 16372 28
13098 16371 16373 28
13099 16371 16374 28
13100 16371 16375 28
13101 16376 16377 28
13102 16376 16378 28
13103 16376 16379 28
13104 16376 16380 28
13105 16381 16382 28
13106 16381 16383 28
13107 16381 16384 28
13108 16381 16385 28
13109 16386 16387 28
13110 16386 16388 28
13111 16386 16389 28
13112 16386 16390 28
13113 16391 16392 28
13114 16391 16393 28
13115 16391 16394 28
13116 16391 16395 28
13117 16396 16397 28
13118 16396 16398 28
13119 16396 16399 28
13120 16396 16400 28
13121 16401 16402 28
13122 16401 16403 28
13123 16401 16404 28
13124 16401 16405 28
13125 16406 16407 28
13126 16406 16408 28
13127 16406 16409 28
13128 16406 16410 28
13129 16411 16412 28
13130 16411 16413 28
13131 16411 16414 28
13132 16411 16415 28
13133 16416 16417 28
13134 16416 16418 28
13135 16416 16419 28
13136 16416 16420 28
13137 16421 16422 28
13138 16421 16423 28
13139 16421 16424 28
13140 16421 16425 28
13141 16426 16427 28
13142 16426 16428 28
13143 16426 16429 28
13144 16426 16430 28
13145 16431 16432 28
13146 16431 16433 28
13147 16431 16434 28
13148 16431 16435 28
13149 16436 16437 28
13150 16436 16438 28
13151 16436 16439 28
13152 16436 16440 28
13153 16441 16442 28
13154 16441 16443 28
13155 16441 16444 28
13156 16441 16445 28
13157 16446 16447 28
13158 16446 16448 28
13159 16446 16449 28
13160 16446 16450 28
13161 16451 16452 28
13162 16451 16453 28
13163 16451 16454 28
13164 16451 16455 28
13165 16456 16457 28
13166 16456 16458 28
13167 16456 16459 28
13168 16456 16460 28
13169 16461 16462 28
13170 16461 16463 28
13171 16461 16464 28
13172 16461 16465 28
13173 16466 16467 28
13174 16466 16468 28
13175 16466 16469 28
13176 16466 16470 28
13177 16471 16472 28
13178 16471 16473 28
13179 16471 16474 28
13180 16471 16475 28
13181 16476 16477 28
13182 16476 16478 28
13183 16476 16479 28
13184 16476 16480 28
13185 16481 16482 28
13186 16481 16483 28
13187 16481 16484 28
13188 16481 16485 28
13189 16486 16487 28
13190 16486 16488 28
13191 16486 16489 28
13192 16486 16490 28
13193 16491 16492 28
13194 16491 16493 28
13195 16491 16494 28
13196 16491 16495 28
13197 16496 16497 28
13198 16496 16498 28
13199 16496 16499 28
13200 16496 16500 28
13201 16501 16502 28
13202 16501 16503 28
13203 16501 16504 28
13204 16501 16505 28
13205 16506 16507 28
13206 16506 16508 28
13207 16506 16509 28
13208 16506 16510 28
13209 16511 16512 28
13210 16511 16513 28
13211 16511 16514 28
13212 16511 16515 28
13213 16516 16517 28
13214 16516 16518 28
13215 16516 16519 28
13216 16516 16520 28
13217 16521 16522 28
13218 16521 16523 28
13219 16521 16524 28
13220 16521 16525 28
13221 16526 16527 28
13222 16526 16528 28
13223 16526 16529 28
13224 16526 16530 28
13225 16531 16532 28
13226 16531 16533 28
13227 16531 16534 28
13228 16531 16535 28
13229 16536 16537 28
13230 16536 16538 28
13231 16536 16539 28
13232 16536 16540 28
13233 16541 16542 28
13234 16541 16543 28
13235 16541 16544 28
13236 16541 16545 28
13237 16546 16547 28
13238 16546 16548 28
13239 16546 16549 28
13240 16546 16550 28
13241 16551 16552 28
13242 16551 16553 28
13243 16551 16554 28
13244 16551 16555 28
13245 16556 16557 28
13246 16556 16558 28
13247 16556 16559 28
13248 16556 16560 28
13249 16561 16562 28
13250 16561 16563 28
13251 16561 16564 28
13252 16561 16565 28
13253 16566 16567 28
13254 16566 16568 28
13255 16566 16569 28
13256 16566 16570 28
13257 16571 16572 28
13258 16571 16573 28
13259 16571 16574 28
13260 16571 16575 28
13261 16576 16577 28
13262 16576 16578 28
13263 16576 16579 28
13264 16576 16580 28
13265 16581 16582 28
13266 16581 16583 28
13267 16581 16584 28
13268 16581 16585 28
13269 16586 16587 28
13270 16586 16588 28
13271 16586 16589 28
13272 16586 16590 28
13273 16591 16592 28
13274 16591 16593 28
13275 16591 16594 28
13276 16591 16595 28
13277 16596 16597 28
13278 16596 16598 28
13279 16596 16599 28
13280 16596 16600 28
13281 16601 16602 28
13282 16601 16603 28
13283 16601 16604 28
13284 16601 16605 28
13285 16606 16607 28
13286 16606 16608 28
13287 16606 16609 28
13288 16606 16610 28
13289 16611 16612 28
13290 16611 16613 28
13291 16611 16614 28
13292 16611 16615 28
13293 16616 16617 28
13294 16616 16618 28
13295 16616 16619 28
13296 16616 16620 28
13297 16621 16622 28
13298 16621 16623 28
13299 16621 16624 28
13300 16621 16625 28
13301 16626 16627 28
13302 16626 16628 28
13303 16626 16629 28
13304 16626 16630 28
13305 16631 16632 28
13306 16631 16633 28
13307 16631 16634 28
13308 16631 16635 28
13309 16636 16637 28
13310 16636 16638 28
13311 16636 16639 28
13312 16636 16640 28
13313 16641 16642 28
13314 16641 16643 28
13315 16641 16644 28
13316 16641 16645 28
13317 16646 16647 28
13318 16646 16648 28
13319 16646 16649 28
13320 16646 16650 28
13321 16651 16652 28
13322 16651 16653 28
13323 16651 16654 28
13324 16651 16655 28
13325 16656 16657 28
13326 16656 16658 28
13327 16656 16659 28
13328 16656 16660 28
13329 16661 16662 28
13330 16661 16663 28
13331 16661 16664 28
13332 16661 16665 28
13333 16666 16667 28
13334 16666 16668 28
13335 16666 16669 28
13336 16666 16670 28
13337 16671 16672 28
13338 16671 16673 28
13339 16671 16674 28
13340 16671 16675 28
13341 16676 16677 28
13342 16676 16678 28
13343 16676 16679 28
13344 16676 16680 28
13345 16681 16682 28
13346 16681 16683 28
13347 16681 16684 28
13348 16681 16685 28
13349 16686 16687 28
13350 16686 16688 28
13351 16686 16689 28
13352 16686 16690 28
13353 16691 16692 28
13354 16691 16693 28
13355 16691 16694 28
13356 16691 16695 28
13357 16696 16697 28
13358 16696 16698 28
13359 16696 16699 28
13360 16696 16700 28
13361 16701 16702 28
13362 16701 16703 28
13363 16701 16704 28
13364 16701 16705 28
13365 16706 16707 28
13366 16706 16708 28
13367 16706 16709 28
13368 16706 16710 28
13369 16711 16712 28
13370 16711 16713 28
13371 16711 16714 28
13372 16711 16715 28
13373 16716 16717 28
13374 16716 16718 28
13375 16716 16719 28
13376 16716 16720 28
13377 16721 16722 28
13378 16721 16723 28
13379 16721 16724 28
13380 16721 16725 28
13381 16726 16727 28
13382 16726 16728 28
13383 16726 16729 28
13384 16726 16730 28
13385 16731 16732 28
13386 16731 16733 28
13387 16731 16734 28
13388 16731 16735 28
13389 16736 16737 28
13390 16736 16738 28
13391 16736 16739 28
13392 16736 16740 28
13393 16741 16742 28
13394 16741 16743 28
13395 16741 16744 28
13396 16741 16745 28
13397 16746 16747 28
13398 16746 16748 28
13399 16746 16749 28
13400 16746 16750 28
13401 16751 16752 28
13402 16751 16753 28
13403 16751 16754 28
13404 16751 16755 28
13405 16756 16757 28
13406 16756 16758 28
13407 16756 16759 28
13408 16756 16760 28
13409 16761 16762 28
13410 16761 16763 28
13411 16761 16764 28
13412 16761 16765 28
13413 16766 16767 28
13414 16766 16768 28
13415 16766 16769 28
13416 16766 16770 28
13417 16771 16772 28
13418 16771 16773 28
13419 16771 16774 28
13420 16771 16775 28
13421 16776 16777 28
13422 16776 16778 28
13423 16776 16779 28
13424 16776 16780 28
13425 16781 16782 28
13426 16781 16783 28
13427 16781 16784 28
13428 16781 16785 28
13429 16786 16787 28
13430 16786 16788 28
13431 16786 16789 28
13432 16786 16790 28
13433 16791 16792 28
13434 16791 16793 28
13435 16791 16794 28
13436 16791 16795 28
13437 16796 16797 28
13438 16796 16798 28
13439 16796 16799 28
13440 16796 16800 28
13441 16801 16802 28
13442 16801 16803 28
13443 16801 16804 28
13444 16801 16805 28
13445 16806 16807 28
13446 16806 16808 28
13447 16806 16809 28
13448 16806 16810 28
13449 16811 16812 28
13450 16811 16813 28
13451 16811 16814 28
13452 16811 16815 28
13453 16816 16817 28
13454 16816 16818 28
13455 16816 16819 28
13456 16816 16820 28
13457 16821 16822 28
13458 16821 16823 28
13459 16821 16824 28
13460 16821 16825 28
13461 16826 16827 28
13462 16826 16828 28
13463 16826 16829 28
13464 16826 16830 28
13465 16831 16832 28
13466 16831 16833 28
13467 16831 16834 28
13468 16831 16835 28
13469 16836 16837 28
13470 16836 16838 28
13471 16836 16839 28
13472 16836 16840 28
13473 16841 16842 28
13474 16841 16843 28
13475 16841 16844 28
13476 16841 16845 28
13477 16846 16847 28
13478 16846 16848 28
13479 16846 16849 28
13480 16846 16850 28
13481 16851 16852 28
13482 16851 16853 28
13483 16851 16854 28
13484 16851 16855 28
13485 16856 16857 28
13486 16856 16858 28
13487 16856 16859 28
13488 16856 16860 28
13489 16861 16862 28
13490 16861 16863 28
13491 16861 16864 28
13492 16861 16865 28
13493 16866 16867 28
13494 16866 16868 28
13495 16866 16869 28
13496 16866 16870 28
13497 16871 16872 28
13498 16871 16873 28
13499 16871 16874 28
13500 16871 16875 28
13501 16876 16877 28
13502 16876 16878 28
13503 16876 16879 28
13504 16876 16880 28
13505 16881 16882 28
13506 16881 16883 28
13507 16881 16884 28
13508 16881 16885 28
13509 16886 16887 28
13510 16886 16888 28
13511 16886 16889 28
13512 16886 16890 28
13513 16891 16892 28
13514 16891 16893 28
13515 16891 16894 28
13516 16891 16895 28
13517 16896 16897 28
13518 16896 16898 28
13519 16896 16899 28
13520 16896 16900 28
13521 16901 16902 28
13522 16901 16903 28
13523 16901 16904 28
13524 16901 16905 28
13525 16906 16907 28
13526 16906 16908 28
13527 16906 16909 28
13528 16906 16910 28
13529 16911 16912 28
13530 16911 16913 28
13531 16911 16914 28
13532 16911 16915 28
13533 16916 16917 28
13534 16916 16918 28
13535 16916 16919 28
13536 16916 16920 28
13537 16921 16922 28
13538 16921 16923 28
13539 16921 16924 28
13540 16921 16925 28
13541 16926 16927 28
13542 16926 16928 28
13543 16926 16929 28
13544 16926 16930 28
13545 16931 16932 28
13546 16931 16933 28
13547 16931 16934 28
13548 16931 16935 28
13549 16936 16937 28
13550 16936 16938 28
13551 16936 16939 28
13552 16936 16940 28
13553 16941 16942 28
13554 16941 16943 28
13555 16941 16944 28
13556 16941 16945 28
13557 16946 16947 28
13558 16946 16948 28
13559 16946 16949 28
13560 16946 16950 28
13561 16951 16952 28
13562 16951 16953 28
13563 16951 16954 28
13564 16951 16955 28
13565 16956 16957 28
13566 16956 16958 28
13567 16956 16959 28
13568 16956 16960 28
13569 16961 16962 28
13570 16961 16963 28
13571 16961 16964 28
13572 16961 16965 28
13573 16966 16967 28
13574 16966 16968 28
13575 16966 16969 28
13576 16966 16970 28
13577 16971 16972 28
13578 16971 16973 28
13579 16971 16974 28
13580 16971 16975 28
13581 16976 16977 28
13582 16976 16978 28
13583 16976 16979 28
13584 16976 16980 28
13585 16981 16982 28
13586 16981 16983 28
13587 16981 16984 28
13588 16981 16985 28
13589 16986 16987 28
13590 16986 16988 28
13591 16986 16989 28
13592 16986 16990 28
13593 16991 16992 28
13594 16991 16993 28
13595 16991 16994 28
13596 16991 16995 28
13597 16996 16997 28
13598 16996 16998 28
13599 16996 16999 28
13600 16996 17000 28
13601 17001 17002 28
13602 17001 17003 28
13603 17001 17004 28
13604 17001 17005 28
13605 17006 17007 28
13606 17006 17008 28
13607 17006 17009 28
13608 17006 17010 28
13609 17011 17012 28
13610 17011 17013 28
13611 17011 17014 28
13612 17011 17015 28
13613 17016 17017 28
13614 17016 17018 28
13615 17016 17019 28
13616 17016 17020 28
13617 17021 17022 28
13618 17021 17023 28
13619 17021 17024 28
13620 17021 17025 28
13621 17026 17027 28
13622 17026 17028 28
13623 17026 17029 28
13624 17026 17030 28
13625 17031 17032 28
13626 17031 17033 28
13627 17031 17034 28
13628 17031 17035 28
13629 17036 17037 28
13630 17036 17038 28
13631 17036 17039 28
13632 17036 17040 28
13633 17041 17042 28
13634 17041 17043 28
13635 17041 17044 28
13636 17041 17045 28
13637 17046 17047 28
13638 17046 17048 28
13639 17046 17049 28
13640 17046 17050 28
13641 17051 17052 28
13642 17051 17053 28
13643 17051 17054 28
13644 17051 17055 28
13645 17056 17057 28
13646 17056 17058 28
13647 17056 17059 28
13648 17056 17060 28
13649 17061 17062 28
13650 17061 17063 28
13651 17061 17064 28
13652 17061 17065 28
13653 17066 17067 28
13654 17066 17068 28
13655 17066 17069 28
13656 17066 17070 28
13657 17071 17072 28
13658 17071 17073 28
13659 17071 17074 28
13660 17071 17075 28
13661 17076 17077 28
13662 17076 17078 28
13663 17076 17079 28
13664 17076 17080 28
13665 17081 17082 28
13666 17081 17083 28
13667 17081 17084 28
13668 17081 17085 28
13669 17086 17087 28
13670 17086 17088 28
13671 17086 17089 28
13672 17086 17090 28
13673 17091 17092 28
13674 17091 17093 28
13675 17091 17094 28
13676 17091 17095 28
13677 17096 17097 28
13678 17096 17098 28
13679 17096 17099 28
13680 17096 17100 28
13681 17101 17102 28
13682 17101 17103 28
13683 17101 17104 28
13684 17101 17105 28
13685 17106 17107 28
13686 17106 17108 28
13687 17106 17109 28
13688 17106 17110 28
13689 17111 17112 28
13690 17111 17113 28
13691 17111 17114 28
13692 17111 17115 28
13693 17116 17117 28
13694 17116 17118 28
13695 17116 17119 28
13696 17116 17120 28
13697 17121 17122 28
13698 17121 17123 28
13699 17121 17124 28
13700 17121 17125 28
13701 17126 17127 28
13702 17126 17128 28
13703 17126 17129 28
13704 17126 17130 28
13705 17131 17132 28
13706 17131 17133 28
13707 17131 17134 28
13708 17131 17135 28
13709 17136 17137 28
13710 17136 17138 28
13711 17136 17139 28
13712 17136 17140 28
13713 17141 17142 28
13714 17141 17143 28
13715 17141 17144 28
13716 17141 17145 28
13717 17146 17147 28
13718 17146 17148 28
13719 17146 17149 28
13720 17146 17150 28
13721 17151 17152 28
13722 17151 17153 28
13723 17151 17154 28
13724 17151 17155 28
13725 17156 17157 28
13726 17156 17158 28
13727 17156 17159 28
13728 17156 17160 28
13729 17161 17162 28
13730 17161 17163 28
13731 17161 17164 28
13732 17161 17165 28
13733 17166 17167 28
13734 17166 17168 28
13735 17166 17169 28
13736 17166 17170 28
13737 17171 17172 28
13738 17171 17173 28
13739 17171 17174 28
13740 17171 17175 28
13741 17176 17177 28
13742 17176 17178 28
13743 17176 17179 28
13744 17176 17180 28
13745 17181 17182 28
13746 17181 17183 28
13747 17181 17184 28
13748 17181 17185 28
13749 17186 17187 28
13750 17186 17188 28
13751 17186 17189 28
13752 17186 17190 28
13753 17191 17192 28
13754 17191 17193 28
13755 17191 17194 28
13756 17191 17195 28
13757 17196 17197 28
13758 17196 17198 28
13759 17196 17199 28
13760 17196 17200 28
13761 17201 17202 28
13762 17201 17203 28
13763 17201 17204 28
13764 17201 17205 28
13765 17206 17207 28
13766 17206 17208 28
13767 17206 17209 28
13768 17206 17210 28
13769 17211 17212 28
13770 17211 17213 28
13771 17211 17214 28
13772 17211 17215 28
13773 17216 17217 28
13774 17216 17218 28
13775 17216 17219 28
13776 17216 17220 28
13777 17221 17222 28
13778 17221 17223 28
13779 17221 17224 28
13780 17221 17225 28
13781 17226 17227 28
13782 17226 17228 28
13783 17226 17229 28
13784 17226 17230 28
13785 17231 17232 28
13786 17231 17233 28
13787 17231 17234 28
13788 17231 17235 28
13789 17236 17237 28
13790 17236 17238 28
13791 17236 17239 28
13792 17236 17240 28
13793 17241 17242 28
13794 17241 17243 28
13795 17241 17244 28
13796 17241 17245 28
13797 17246 17247 28
13798 17246 17248 28
13799 17246 17249 28
13800 17246 17250 28
13801 17251 17252 28
13802 17251 17253 28
13803 17251 17254 28
13804 17251 17255 28
13805 17256 17257 28
13806 17256 17258 28
13807 17256 17259 28
13808 17256 17260 28
13809 17261 17262 28
13810 17261 17263 28
13811 17261 17264 28
13812 17261 17265 28
13813 17266 17267 28
13814 17266 17268 28
13815 17266 17269 28
13816 17266 17270 28
13817 17271 17272 28
13818 17271 17273 28
13819 17271 17274 28
13820 17271 17275 28
13821 17276 17277 28
13822 17276 17278 28
13823 17276 17279 28
13824 17276 17280 28
13825 17281 17282 28
13826 17281 17283 28
13827 17281 17284 28
13828 17281 17285 28
13829 17286 17287 28
13830 17286 17288 28
13831 17286 17289 28
13832 17286 17290 28
13833 17291 17292 28
13834 17291 17293 28
13835 17291 17294 28
13836 17291 17295 28
13837 17296 17297 28
13838 17296 17298 28
13839 17296 17299 28
13840 17296 17300 28
13841 17301 17302 28
13842 17301 17303 28
13843 17301 17304 28
13844 17301 17305 28
13845 17306 17307 28
13846 17306 17308 28
13847 17306 17309 28
13848 17306 17310 28
13849 17311 17312 28
13850 17311 17313 28
13851 17311 17314 28
13852 17311 17315 28
13853 17316 17317 28
13854 17316 17318 28
13855 17316 17319 28
13856 17316 17320 28
13857 17321 17322 28
13858 17321 17323 28
13859 17321 17324 28
13860 17321 17325 28
13861 17326 17327 28
13862 17326 17328 28
13863 17326 17329 28
13864 17326 17330 28
13865 17331 17332 28
13866 17331 17333 28
13867 17331 17334 28
13868 17331 17335 28
13869 17336 17337 28
13870 17336 17338 28
13871 17336 17339 28
13872 17336 17340 28
13873 17341 17342 28
13874 17341 17343 28
13875 17341 17344 28
13876 17341 17345 28
13877 17346 17347 28
13878 17346 17348 28
13879 17346 17349 28
13880 17346 17350 28
13881 17351 17352 28
13882 17351 17353 28
13883 17351 17354 28
13884 17351 17355 28
13885 17356 17357 28
13886 17356 17358 28
13887 17356 17359 28
13888 17356 17360 28
13889 17361 17362 28
13890 17361 17363 28
13891 17361 17364 28
13892 17361 17365 28
13893 17366 17367 28
13894 17366 17368 28
13895 17366 17369 28
13896 17366 17370 28
13897 17371 17372 28
13898 17371 17373 28
13899 17371 17374 28
13900 17371 17375 28
13901 17376 17377 28
13902 17376 17378 28
13903 17376 17379 28
13904 17376 17380 28
13905 17381 17382 28
13906 17381 17383 28
13907 17381 17384 28
13908 17381 17385 28
13909 17386 17387 28
13910 17386 17388 28
13911 17386 17389 28
13912 17386 17390 28
13913 17391 17392 28
13914 17391 17393 28
13915 17391 17394 28
13916 17391 17395 28
13917 17396 17397 28
13918 17396 17398 28
13919 17396 17399 28
13920 17396 17400 28
13921 17401 17402 28
13922 17401 17403 28
13923 17401 17404 28
13924 17401 17405 28
13925 17406 17407 28
13926 17406 17408 28
13927 17406 17409 28
13928 17406 17410 28
13929 17411 17412 28
13930 17411 17413 28
13931 17411 17414 28
13932 17411 17415 28
13933 17416 17417 28
13934 17416 17418 28
13935 17416 17419 28
13936 17416 17420 28
13937 17421 17422 28
13938 17421 17423 28
13939 17421 17424 28
13940 17421 17425 28
13941 17426 17427 28
13942 17426 17428 28
13943 17426 17429 28
13944 17426 17430 28
13945 17431 17432 28
13946 17431 17433 28
13947 17431 17434 28
13948 17431 17435 28
13949 17436 17437 28
13950 17436 17438 28
13951 17436 17439 28
13952 17436 17440 28
13953 17441 17442 28
13954 17441 17443 28
13955 17441 17444 28
13956 17441 17445 28
13957 17446 17447 28
13958 17446 17448 28
13959 17446 17449 28
13960 17446 17450 28
13961 17451 17452 28
13962 17451 17453 28
13963 17451 17454 28
13964 17451 17455 28
13965 17456 17457 28
13966 17456 17458 28
13967 17456 17459 28
13968 17456 17460 28
13969 17461 17462 28
13970 17461 17463 28
13971 17461 17464 28
13972 17461 17465 28
13973 17466 17467 28
13974 17466 17468 28
13975 17466 17469 28
13976 17466 17470 28
13977 17471 17472 28
13978 17471 17473 28
13979 17471 17474 28
13980 17471 17475 28
13981 17476 17477 28
13982 17476 17478 28
13983 17476 17479 28
13984 17476 17480 28
13985 17481 17482 28
13986 17481 17483 28
13987 17481 17484 28
13988 17481 17485 28
13989 17486 17487 28
13990 17486 17488 28
13991 17486 17489 28
13992 17486 17490 28
13993 17491 17492 28
13994 17491 17493 28
13995 17491 17494 28
13996 17491 17495 28
13997 17496 17497 28
13998 17496 17498 28
13999 17496 17499 28
14000 17496 17500 28
14001 17501 17502 28
14002 17501 17503 28
14003 17501 17504 28
14004 17501 17505 28
14005 17506 17507 28
14006 17506 17508 28
14007 17506 17509 28
14008 17506 17510 28
14009 17511 17512 28
14010 17511 17513 28
14011 17511 17514 28
14012 17511 17515 28
14013 17516 17517 28
14014 17516 17518 28
14015 17516 17519 28
14016 17516 17520 28
14017 17521 17522 28
14018 17521 17523 28
14019 17521 17524 28
14020 17521 17525 28
14021 17526 17527 28
14022 17526 17528 28
14023 17526 17529 28
14024 17526 17530 28
14025 17531 17532 28
14026 17531 17533 28
14027 17531 17534 28
14028 17531 17535 28
14029 17536 17537 28
14030 17536 17538 28
14031 17536 17539 28
14032 17536 17540 28
14033 17541 17542 28
14034 17541 17543 28
14035 17541 17544 28
14036 17541 17545 28
14037 17546 17547 28
14038 17546 17548 28
14039 17546 17549 28
14040 17546 17550 28
14041 17551 17552 28
14042 17551 17553 28
14043 17551 17554 28
14044 17551 17555 28
14045 17556 17557 28
14046 17556 17558 28
14047 17556 17559 28
14048 17556 17560 28
14049 17561 17562 28
14050 17561 17563 28
14051 17561 17564 28
14052 17561 17565 28
14053 17566 17567 28
14054 17566 17568 28
14055 17566 17569 28
14056 17566 17570 28
14057 17571 17572 28
14058 17571 17573 28
14059 17571 17574 28
14060 17571 17575 28
14061 17576 17577 28
14062 17576 17578 28
14063 17576 17579 28
14064 17576 17580 28
14065 17581 17582 28
14066 17581 17583 28
14067 17581 17584 28
14068 17581 17585 28
14069 17586 17587 28
14070 17586 17588 28
14071 17586 17589 28
14072 17586 17590 28
14073 17591 17592 28
14074 17591 17593 28
14075 17591 17594 28
14076 17591 17595 28
14077 17596 17597 28
14078 17596 17598 28
14079 17596 17599 28
14080 17596 17600 28
14081 17601 17602 28
14082 17601 17603 28
14083 17601 17604 28
14084 17601 17605 28
14085 17606 17607 28
14086 17606 17608 28
14087 17606 17609 28
14088 17606 17610 28
14089 17611 17612 28
14090 17611 17613 28
14091 17611 17614 28
14092 17611 17615 28
14093 17616 17617 28
14094 17616 17618 28
14095 17616 17619 28
14096 17616 17620 28
14097 17621 17622 28
14098 17621 17623 28
14099 17621 17624 28
14100 17621 17625 28
14101 17626 17627 28
14102 17626 17628 28
14103 17626 17629 28
14104 17626 17630 28
14105 17631 17632 28
14106 17631 17633 28
14107 17631 17634 28
14108 17631 17635 28
14109 17636 17637 28
14110 17636 17638 28
14111 17636 17639 28
14112 17636 17640 28
14113 17641 17642 28
14114 17641 17643 28
14115 17641 17644 28
14116 17641 17645 28
14117 17646 17647 28
14118 17646 17648 28
14119 17646 17649 28
14120 17646 17650 28
14121 17651 17652 28
14122 17651 17653 28
14123 17651 17654 28
14124 17651 17655 28
14125 17656 17657 28
14126 17656 17658 28
14127 17656 17659 28
14128 17656 17660 28
14129 17661 17662 28
14130 17661 17663 28
14131 17661 17664 28
14132 17661 17665 28
14133 17666 17667 28
14134 17666 17668 28
14135 17666 17669 28
14136 17666 17670 28
14137 17671 17672 28
14138 17671 17673 28
14139 17671 17674 28
14140 17671 17675 28
14141 17676 17677 28
14142 17676 17678 28
14143 17676 17679 28
14144 17676 17680 28
14145 17681 17682 28
14146 17681 17683 28
14147 17681 17684 28
14148 17681 17685 28
14149 17686 17687 28
14150 17686 17688 28
14151 17686 17689 28
14152 17686 17690 28
14153 17691 17692 28
14154 17691 17693 28
14155 17691 17694 28
14156 17691 17695 28
14157 17696 17697 28
14158 17696 17698 28
14159 17696 17699 28
14160 17696 17700 28
14161 17701 17702 28
14162 17701 17703 28
14163 17701 17704 28
14164 17701 17705 28
14165 17706 17707 28
14166 17706 17708 28
14167 17706 17709 28
14168 17706 17710 28
14169 17711 17712 28
14170 17711 17713 28
14171 17711 17714 28
14172 17711 17715 28
14173 17716 17717 28
14174 17716 17718 28
14175 17716 17719 28
14176 17716 17720 28
14177 17721 17722 28
14178 17721 17723 28
14179 17721 17724 28
14180 17721 17725 28
14181 17726 17727 28
14182 17726 17728 28
14183 17726 17729 28
14184 17726 17730 28
14185 17731 17732 28
14186 17731 17733 28
14187 17731 17734 28
14188 17731 17735 28
14189 17736 17737 28
14190 17736 17738 28
14191 17736 17739 28
14192 17736 17740 28
14193 17741 17742 28
14194 17741 17743 28
14195 17741 17744 28
14196 17741 17745 28
14197 17746 17747 28
14198 17746 17748 28
14199 17746 17749 28
14200 17746 17750 28
14201 17751 17752 28
14202 17751 17753 28
14203 17751 17754 28
14204 17751 17755 28
14205 17756 17757 28
14206 17756 17758 28
14207 17756 17759 28
14208 17756 17760 28
14209 17761 17762 28
14210 17761 17763 28
14211 17761 17764 28
14212 17761 17765 28
14213 17766 17767 28
14214 17766 17768 28
14215 17766 17769 28
14216 17766 17770 28
14217 17771 17772 28
14218 17771 17773 28
14219 17771 17774 28
14220 17771 17775 28
14221 17776 17777 28
14222 17776 17778 28
14223 17776 17779 28
14224 17776 17780 28
14225 17781 17782 28
14226 17781 17783 28
14227 17781 17784 28
14228 17781 17785 28
14229 17786 17787 28
14230 17786 17788 28
14231 17786 17789 28
14232 17786 17790 28
14233 17791 17792 28
14234 17791 17793 28
14235 17791 17794 28
14236 17791 17795 28
14237 17796 17797 28
14238 17796 17798 28
14239 17796 17799 28
14240 17796 17800 28
14241 17801 17802 28
14242 17801 17803 28
14243 17801 17804 28
14244 17801 17805 28
14245 17806 17807 28
14246 17806 17808 28
14247 17806 17809 28
14248 17806 17810 28
14249 17811 17812 28
14250 17811 17813 28
14251 17811 17814 28
14252 17811 17815 28
14253 17816 17817 28
14254 17816 17818 28
14255 17816 17819 28
14256 17816 17820 28
14257 17821 17822 28
14258 17821 17823 28
14259 17821 17824 28
14260 17821 17825 28
14261 17826 17827 28
14262 17826 17828 28
14263 17826 17829 28
14264 17826 17830 28
14265 17831 17832 28
14266 17831 17833 28
14267 17831 17834 28
14268 17831 17835 28
14269 17836 17837 28
14270 17836 17838 28
14271 17836 17839 28
14272 17836 17840 28
14273 17841 17842 28
14274 17841 17843 28
14275 17841 17844 28
14276 17841 17845 28
14277 17846 17847 28
14278 17846 17848 28
14279 17846 17849 28
14280 17846 17850 28
14281 17851 17852 28
14282 17851 17853 28
14283 17851 17854 28
14284 17851 17855 28
14285 17856 17857 28
14286 17856 17858 28
14287 17856 17859 28
14288 17856 17860 28
14289 17861 17862 28
14290 17861 17863 28
14291 17861 17864 28
14292 17861 17865 28
14293 17866 17867 28
14294 17866 17868 28
14295 17866 17869 28
14296 17866 17870 28
14297 17871 17872 28
14298 17871 17873 28
14299 17871 17874 28
14300 17871 17875 28
14301 17876 17877 28
14302 17876 17878 28
14303 17876 17879 28
14304 17876 17880 28
14305 17881 17882 28
14306 17881 17883 28
14307 17881 17884 28
14308 17881 17885 28
14309 17886 17887 28
14310 17886 17888 28
14311 17886 17889 28
14312 17886 17890 28
14313 17891 17892 28
14314 17891 17893 28
14315 17891 17894 28
14316 17891 17895 28
14317 17896 17897 28
14318 17896 17898 28
14319 17896 17899 28
14320 17896 17900 28
14321 17901 17902 28
14322 17901 17903 28
14323 17901 17904 28
14324 17901 17905 28
14325 17906 17907 28
14326 17906 17908 28
14327 17906 17909 28
14328 17906 17910 28
14329 17911 17912 28
14330 17911 17913 28
14331 17911 17914 28
14332 17911 17915 28
14333 17916 17917 28
14334 17916 17918 28
14335 17916 17919 28
14336 17916 17920 28
14337 17921 17922 28
14338 17921 17923 28
14339 17921 17924 28
14340 17921 17925 28
14341 17926 17927 28
14342 17926 17928 28
14343 17926 17929 28
14344 17926 17930 28
14345 17931 17932 28
14346 17931 17933 28
14347 17931 17934 28
14348 17931 17935 28
14349 17936 17937 28
14350 17936 17938 28
14351 17936 17939 28
14352 17936 17940 28
14353 17941 17942 28
14354 17941 17943 28
14355 17941 17944 28
14356 17941 17945 28
14357 17946 17947 28
14358 17946 17948 28
14359 17946 17949 28
14360 17946 17950 28
14361 17951 17952 28
14362 17951 17953 28
14363 17951 17954 28
14364 17951 17955 28
14365 17956 17957 28
14366 17956 17958 28
14367 17956 17959 28
14368 17956 17960 28
14369 17961 17962 28
14370 17961 17963 28
14371 17961 17964 28
14372 17961 17965 28
14373 17966 17967 28
14374 17966 17968 28
14375 17966 17969 28
14376 17966 17970 28
14377 17971 17972 28
14378 17971 17973 28
14379 17971 17974 28
14380 17971 17975 28
14381 17976 17977 28
14382 17976 17978 28
14383 17976 17979 28
14384 17976 17980 28
14385 17981 17982 28
14386 17981 17983 28
14387 17981 17984 28
14388 17981 17985 28
14389 17986 17987 28
14390 17986 17988 28
14391 17986 17989 28
14392 17986 17990 28
14393 17991 17992 28
14394 17991 17993 28
14395 17991 17994 28
14396 17991 17995 28
14397 17996 17997 28
14398 17996 17998 28
14399 17996 17999 28
14400 17996 18000 28
14401 18001 18002 28
14402 18001 18003 28
14403 18001 18004 28
14404 18001 18005 28
14405 18006 18007 28
14406 18006 18008 28
14407 18006 18009 28
14408 18006 18010 28
14409 18011 18012 28
14410 18011 18013 28
14411 18011 18014 28
14412 18011 18015 28
14413 18016 18017 28
14414 18016 18018 28
14415 18016 18019 28
14416 18016 18020 28
14417 18021 18022 28
14418 18021 18023 28
14419 18021 18024 28
14420 18021 18025 28
14421 18026 18027 28
14422 18026 18028 28
14423 18026 18029 28
14424 18026 18030 28
14425 18031 18032 28
14426 18031 18033 28
14427 18031 18034 28
14428 18031 18035 28
14429 18036 18037 28
14430 18036 18038 28
14431 18036 18039 28
14432 18036 18040 28
14433 18041 18042 28
14434 18041 18043 28
14435 18041 18044 28
14436 18041 18045 28
14437 18046 18047 28
14438 18046 18048 28
14439 18046 18049 28
14440 18046 18050 28
14441 18051 18052 28
14442 18051 18053 28
14443 18051 18054 28
14444 18051 18055 28
14445 18056 18057 28
14446 18056 18058 28
14447 18056 18059 28
14448 18056 18060 28
14449 18061 18062 28
14450 18061 18063 28
14451 18061 18064 28
14452 18061 18065 28
14453 18066 18067 28
14454 18066 18068 28
14455 18066 18069 28
14456 18066 18070 28
14457 18071 18072 28
14458 18071 18073 28
14459 18071 18074 28
14460 18071 18075 28
14461 18076 18077 28
14462 18076 18078 28
14463 18076 18079 28
14464 18076 18080 28
14465 18081 18082 28
14466 18081 18083 28
14467 18081 18084 28
14468 18081 18085 28
14469 18086 18087 28
14470 18086 18088 28
14471 18086 18089 28
14472 18086 18090 28
14473 18091 18092 28
14474 18091 18093 28
14475 18091 18094 28
14476 18091 18095 28
14477 18096 18097 28
14478 18096 18098 28
14479 18096 18099 28
14480 18096 18100 28
14481 18101 18102 28
14482 18101 18103 28
14483 18101 18104 28
14484 18101 18105 28
14485 18106 18107 28
14486 18106 18108 28
14487 18106 18109 28
14488 18106 18110 28
14489 18111 18112 28
14490 18111 18113 28
14491 18111 18114 28
14492 18111 18115 28
14493 18116 18117 28
14494 18116 18118 28
14495 18116 18119 28
14496 18116 18120 28
14497 18121 18122 28
14498 18121 18123 28
14499 18121 18124 28
14500 18121 18125 28
14501 18126 18127 28
14502 18126 18128 28
14503 18126 18129 28
14504 18126 18130 28
14505 18131 18132 28
14506 18131 18133 28
14507 18131 18134 28
14508 18131 18135 28
14509 18136 18137 28
14510 18136 18138 28
14511 18136 18139 28
14512 18136 18140 28
14513 18141 18142 28
14514 18141 18143 28
14515 18141 18144 28
14516 18141 18145 28
14517 18146 18147 28
14518 18146 18148 28
14519 18146 18149 28
14520 18146 18150 28
14521 18151 18152 28
14522 18151 18153 28
14523 18151 18154 28
14524 18151 18155 28
14525 18156 18157 28
14526 18156 18158 28
14527 18156 18159 28
14528 18156 18160 28
14529 18161 18162 28
14530 18161 18163 28
14531 18161 18164 28
14532 18161 18165 28
14533 18166 18167 28
14534 18166 18168 28
14535 18166 18169 28
14536 18166 18170 28
14537 18171 18172 28
14538 18171 18173 28
14539 18171 18174 28
14540 18171 18175 28
14541 18176 18177 28
14542 18176 18178 28
14543 18176 18179 28
14544 18176 18180 28
14545 18181 18182 28
14546 18181 18183 28
14547 18181 18184 28
14548 18181 18185 28
14549 18186 18187 28
14550 18186 18188 28
14551 18186 18189 28
14552 18186 18190 28
14553 18191 18192 28
14554 18191 18193 28
14555 18191 18194 28
14556 18191 18195 28
14557 18196 18197 28
14558 18196 18198 28
14559 18196 18199 28
14560 18196 18200 28
14561 18201 18202 28
14562 18201 18203 28
14563 18201 18204 28
14564 18201 18205 28
14565 18206 18207 28
14566 18206 18208 28
14567 18206 18209 28
14568 18206 18210 28
14569 18211 18212 28
14570 18211 18213 28
14571 18211 18214 28
14572 18211 18215 28
14573 18216 18217 28
14574 18216 18218 28
14575 18216 18219 28
14576 18216 18220 28
14577 18221 18222 28
14578 18221 18223 28
14579 18221 18224 28
14580 18221 18225 28
14581 18226 18227 28
14582 18226 18228 28
14583 18226 18229 28
14584 18226 18230 28
14585 18231 18232 28
14586 18231 18233 28
14587 18231 18234 28
14588 18231 18235 28
14589 18236 18237 28
14590 18236 18238 28
14591 18236 18239 28
14592 18236 18240 28
14593 18241 18242 28
14594 18241 18243 28
14595 18241 18244 28
14596 18241 18245 28
14597 18246 18247 28
14598 18246 18248 28
14599 18246 18249 28
14600 18246 18250 28
14601 18251 18252 28
14602 18251 18253 28
14603 18251 18254 28
14604 18251 18255 28
14605 18256 18257 28
14606 18256 18258 28
14607 18256 18259 28
14608 18256 18260 28
14609 18261 18262 28
14610 18261 18263 28
14611 18261 18264 28
14612 18261 18265 28
14613 18266 18267 28
14614 18266 18268 28
14615 18266 18269 28
14616 18266 18270 28
14617 18271 18272 28
14618 18271 18273 28
14619 18271 18274 28
14620 18271 18275 28
14621 18276 18277 28
14622 18276 18278 28
14623 18276 18279 28
14624 18276 18280 28
14625 18281 18282 28
14626 18281 18283 28
14627 18281 18284 28
14628 18281 18285 28
14629 18286 18287 28
14630 18286 18288 28
14631 18286 18289 28
14632 18286 18290 28
14633 18291 18292 28
14634 18291 18293 28
14635 18291 18294 28
14636 18291 18295 28
14637 18296 18297 28
14638 18296 18298 28
14639 18296 18299 28
14640 18296 18300 28
14641 18301 18302 28
14642 18301 18303 28
14643 18301 18304 28
14644 18301 18305 28
14645 18306 18307 28
14646 18306 18308 28
14647 18306 18309 28
14648 18306 18310 28
14649 18311 18312 28
14650 18311 18313 28
14651 18311 18314 28
14652 18311 18315 28
14653 18316 18317 28
14654 18316 18318 28
14655 18316 18319 28
14656 18316 18320 28
14657 18321 18322 28
14658 18321 18323 28
14659 18321 18324 28
14660 18321 18325 28
14661 18326 18327 28
14662 18326 18328 28
14663 18326 18329 28
14664 18326 18330 28
14665 18331 18332 28
14666 18331 18333 28
14667 18331 18334 28
14668 18331 18335 28
14669 18336 18337 28
14670 18336 18338 28
14671 18336 18339 28
14672 18336 18340 28
14673 18341 18342 28
14674 18341 18343 28
14675 18341 18344 28
14676 18341 18345 28
14677 18346 18347 28
14678 18346 18348 28
14679 18346 18349 28
14680 18346 18350 28
14681 18351 18352 28
14682 18351 18353 28
14683 18351 18354 28
14684 18351 18355 28
14685 18356 18357 28
14686 18356 18358 28
14687 18356 18359 28
14688 18356 18360 28
14689 18361 18362 28
14690 18361 18363 28
14691 18361 18364 28
14692 18361 18365 28
14693 18366 18367 28
14694 18366 18368 28
14695 18366 18369 28
14696 18366 18370 28
14697 18371 18372 28
14698 18371 18373 28
14699 18371 18374 28
14700 18371 18375 28
14701 18376 18377 28
14702 18376 18378 28
14703 18376 18379 28
14704 18376 18380 28
14705 18381 18382 28
14706 18381 18383 28
14707 18381 18384 28
14708 18381 18385 28
14709 18386 18387 28
14710 18386 18388 28
14711 18386 18389 28
14712 18386 18390 28
14713 18391 18392 28
14714 18391 18393 28
14715 18391 18394 28
14716 18391 18395 28
14717 18396 18397 28
14718 18396 18398 28
14719 18396 18399 28
14720 18396 18400 28
14721 18401 18402 28
14722 18401 18403 28
14723 18401 18404 28
14724 18401 18405 28
14725 18406 18407 28
14726 18406 18408 28
14727 18406 18409 28
14728 18406 18410 28
14729 18411 18412 28
14730 18411 18413 28
14731 18411 18414 28
14732 18411 18415 28
14733 18416 18417 28
14734 18416 18418 28
14735 18416 18419 28
14736 18416 18420 28
14737 18421 18422 28
14738 18421 18423 28
14739 18421 18424 28
14740 18421 18425 28
14741 18426 18427 28
14742 18426 18428 28
14743 18426 18429 28
14744 18426 18430 28
14745 18431 18432 28
14746 18431 18433 28
14747 18431 18434 28
14748 18431 18435 28
14749 18436 18437 28
14750 18436 18438 28
14751 18436 18439 28
14752 18436 18440 28
14753 18441 18442 28
14754 18441 18443 28
14755 18441 18444 28
14756 18441 18445 28
14757 18446 18447 28
14758 18446 18448 28
14759 18446 18449 28
14760 18446 18450 28
14761 18451 18452 28
14762 18451 18453 28
14763 18451 18454 28
14764 18451 18455 28
14765 18456 18457 28
14766 18456 18458 28
14767 18456 18459 28
14768 18456 18460 28
14769 18461 18462 28
14770 18461 18463 28
14771 18461 18464 28
14772 18461 18465 28
14773 18466 18467 28
14774 18466 18468 28
14775 18466 18469 28
14776 18466 18470 28
14777 18471 18472 28
14778 18471 18473 28
14779 18471 18474 28
14780 18471 18475 28
14781 18476 18477 28
14782 18476 18478 28
14783 18476 18479 28
14784 18476 18480 28
14785 18481 18482 28
14786 18481 18483 28
14787 18481 18484 28
14788 18481 18485 28
14789 18486 18487 28
14790 18486 18488 28
14791 18486 18489 28
14792 18486 18490 28
14793 18491 18492 28
14794 18491 18493 28
14795 18491 18494 28
14796 18491 18495 28
14797 18496 18497 28
14798 18496 18498 28
14799 18496 18499 28
14800 18496 18500 28
14801 18501 18502 28
14802 18501 18503 28
14803 18501 18504 28
14804 18501 18505 28
14805 18506 18507 28
14806 18506 18508 28
14807 18506 18509 28
14808 18506 18510 28
14809 18511 18512 28
14810 18511 18513 28
14811 18511 18514 28
14812 18511 18515 28
14813 18516 18517 28
14814 18516 18518 28
14815 18516 18519 28
14816 18516 18520 28
14817 18521 18522 28
14818 18521 18523 28
14819 18521 18524 28
14820 18521 18525 28
14821 18526 18527 28
14822 18526 18528 28
14823 18526 18529 28
14824 18526 18530 28
14825 18531 18532 28
14826 18531 18533 28
14827 18531 18534 28
14828 18531 18535 28
14829 18536 18537 28
14830 18536 18538 28
14831 18536 18539 28
14832 18536 18540 28
14833 18541 18542 28
14834 18541 18543 28
14835 18541 18544 28
14836 18541 18545 28
14837 18546 18547 28
14838 18546 18548 28
14839 18546 18549 28
14840 18546 18550 28
14841 18551 18552 28
14842 18551 18553 28
14843 18551 18554 28
14844 18551 18555 28
14845 18556 18557 28
14846 18556 18558 28
14847 18556 18559 28
14848 18556 18560 28
14849 18561 18562 28
14850 18561 18563 28
14851 18561 18564 28
14852 18561 18565 28
14853 18566 18567 28
14854 18566 18568 28
14855 18566 18569 28
14856 18566 18570 28
14857 18571 18572 28
14858 18571 18573 28
14859 18571 18574 28
14860 18571 18575 28
14861 18576 18577 28
14862 18576 18578 28
14863 18576 18579 28
14864 18576 18580 28
14865 18581 18582 28
14866 18581 18583 28
14867 18581 18584 28
14868 18581 18585 28
14869 18586 18587 28
14870 18586 18588 28
14871 18586 18589 28
14872 18586 18590 28
14873 18591 18592 28
14874 18591 18593 28
14875 18591 18594 28
14876 18591 18595 28
14877 18596 18597 28
14878 18596 18598 28
14879 18596 18599 28
14880 18596 18600 28
14881 18601 18602 28
14882 18601 18603 28
14883 18601 18604 28
14884 18601 18605 28
14885 18606 18607 28
14886 18606 18608 28
14887 18606 18609 28
14888 18606 18610 28
14889 18611 18612 28
14890 18611 18613 28
14891 18611 18614 28
14892 18611 18615 28
14893 18616 18617 28
14894 18616 18618 28
14895 18616 18619 28
14896 18616 18620 28
14897 18621 18622 28
14898 18621 18623 28
14899 18621 18624 28
14900 18621 18625 28
14901 18626 18627 28
14902 18626 18628 28
14903 18626 18629 28
14904 18626 18630 28
14905 18631 18632 28
14906 18631 18633 28
14907 18631 18634 28
14908 18631 18635 28
14909 18636 18637 28
14910 18636 18638 28
14911 18636 18639 28
14912 18636 18640 28
14913 18641 18642 28
14914 18641 18643 28
14915 18641 18644 28
14916 18641 18645 28
14917 18646 18647 28
14918 18646 18648 28
14919 18646 18649 28
14920 18646 18650 28
14921 18651 18652 28
14922 18651 18653 28
14923 18651 18654 28
14924 18651 18655 28
14925 18656 18657 28
14926 18656 18658 28
14927 18656 18659 28
14928 18656 18660 28
14929 18661 18662 28
14930 18661 18663 28
14931 18661 18664 28
14932 18661 18665 28
14933 18666 18667 28
14934 18666 18668 28
14935 18666 18669 28
14936 18666 18670 28
14937 18671 18672 28
14938 18671 18673 28
14939 18671 18674 28
14940 18671 18675 28
14941 18676 18677 28
14942 18676 18678 28
14943 18676 18679 28
14944 18676 18680 28
14945 18681 18682 28
14946 18681 18683 28
14947 18681 18684 28
14948 18681 18685 28
14949 18686 18687 28
14950 18686 18688 28
14951 18686 18689 28
14952 18686 18690 28
14953 18691 18692 28
14954 18691 18693 28
14955 18691 18694 28
14956 18691 18695 28
14957 18696 18697 28
14958 18696 18698 28
14959 18696 18699 28
14960 18696 18700 28
14961 18701 18702 28
14962 18701 18703 28
14963 18701 18704 28
14964 18701 18705 28
14965 18706 18707 28
14966 18706 18708 28
14967 18706 18709 28
14968 18706 18710 28
14969 18711 18712 28
14970 18711 18713 28
14971 18711 18714 28
14972 18711 18715 28
14973 18716 18717 28
14974 18716 18718 28
14975 18716 18719 28
14976 18716 18720 28
14977 18721 18722 28
14978 18721 18723 28
14979 18721 18724 28
14980 18721 18725 28
14981 18726 18727 28
14982 18726 18728 28
14983 18726 18729 28
14984 18726 18730 28
14985 18731 18732 28
14986 18731 18733 28
14987 18731 18734 28
14988 18731 18735 28
14989 18736 18737 28
14990 18736 18738 28
14991 18736 18739 28
14992 18736 18740 28
14993 18741 18742 28
14994 18741 18743 28
14995 18741 18744 28
14996 18741 18745 28
14997 18746 18747 28
14998 18746 18748 28
14999 18746 18749 28
15000 18746 18750 28
15001 18751 18752 28
15002 18751 18753 28
15003 18751 18754 28
15004 18751 18755 28
15005 18756 18757 28
15006 18756 18758 28
15007 18756 18759 28
15008 18756 18760 28
15009 18761 18762 28
15010 18761 18763 28
15011 18761 18764 28
15012 18761 18765 28
15013 18766 18767 28
15014 18766 18768 28
15015 18766 18769 28
15016 18766 18770 28
15017 18771 18772 28
15018 18771 18773 28
15019 18771 18774 28
15020 18771 18775 28
15021 18776 18777 28
15022 18776 18778 28
15023 18776 18779 28
15024 18776 18780 28
15025 18781 18782 28
15026 18781 18783 28
15027 18781 18784 28
15028 18781 18785 28
15029 18786 18787 28
15030 18786 18788 28
15031 18786 18789 28
15032 18786 18790 28
15033 18791 18792 28
15034 18791 18793 28
15035 18791 18794 28
15036 18791 18795 28
15037 18796 18797 28
15038 18796 18798 28
15039 18796 18799 28
15040 18796 18800 28
15041 18801 18802 28
15042 18801 18803 28
15043 18801 18804 28
15044 18801 18805 28
15045 18806 18807 28
15046 18806 18808 28
15047 18806 18809 28
15048 18806 18810 28
15049 18811 18812 28
15050 18811 18813 28
15051 18811 18814 28
15052 18811 18815 28
15053 18816 18817 28
15054 18816 18818 28
15055 18816 18819 28
15056 18816 18820 28
15057 18821 18822 28
15058 18821 18823 28
15059 18821 18824 28
15060 18821 18825 28
15061 18826 18827 28
15062 18826 18828 28
15063 18826 18829 28
15064 18826 18830 28
15065 18831 18832 28
15066 18831 18833 28
15067 18831 18834 28
15068 18831 18835 28
15069 18836 18837 28
15070 18836 18838 28
15071 18836 18839 28
15072 18836 18840 28
15073 18841 18842 28
15074 18841 18843 28
15075 18841 18844 28
15076 18841 18845 28
15077 18846 18847 28
15078 18846 18848 28
15079 18846 18849 28
15080 18846 18850 28
15081 18851 18852 28
15082 18851 18853 28
15083 18851 18854 28
15084 18851 18855 28
15085 18856 18857 28
15086 18856 18858 28
15087 18856 18859 28
15088 18856 18860 28
15089 18861 18862 28
15090 18861 18863 28
15091 18861 18864 28
15092 18861 18865 28
15093 18866 18867 28
15094 18866 18868 28
15095 18866 18869 28
15096 18866 18870 28
15097 18871 18872 28
15098 18871 18873 28
15099 18871 18874 28
15100 18871 18875 28
15101 18876 18877 28
15102 18876 18878 28
15103 18876 18879 28
15104 18876 18880 28
15105 18881 18882 28
15106 18881 18883 28
15107 18881 18884 28
15108 18881 18885 28
15109 18886 18887 28
15110 18886 18888 28
15111 18886 18889 28
15112 18886 18890 28
15113 18891 18892 28
15114 18891 18893 28
15115 18891 18894 28
15116 18891 18895 28
15117 18896 18897 28
15118 18896 18898 28
15119 18896 18899 28
15120 18896 18900 28
15121 18901 18902 28
15122 18901 18903 28
15123 18901 18904 28
15124 18901 18905 28
15125 18906 18907 28
15126 18906 18908 28
15127 18906 18909 28
15128 18906 18910 28
15129 18911 18912 28
15130 18911 18913 28
15131 18911 18914 28
15132 18911 18915 28
15133 18916 18917 28
15134 18916 18918 28
15135 18916 18919 28
15136 18916 18920 28
15137 18921 18922 28
15138 18921 18923 28
15139 18921 18924 28
15140 18921 18925 28
15141 18926 18927 28
15142 18926 18928 28
15143 18926 18929 28
15144 18926 18930 28
15145 18931 18932 28
15146 18931 18933 28
15147 18931 18934 28
15148 18931 18935 28
15149 18936 18937 28
15150 18936 18938 28
15151 18936 18939 28
15152 18936 18940 28
15153 18941 18942 28
15154 18941 18943 28
15155 18941 18944 28
15156 18941 18945 28
15157 18946 18947 28
15158 18946 18948 28
15159 18946 18949 28
15160 18946 18950 28
15161 18951 18952 28
15162 18951 18953 28
15163 18951 18954 28
15164 18951 18955 28
15165 18956 18957 28
15166 18956 18958 28
15167 18956 18959 28
15168 18956 18960 28
15169 18961 18962 28
15170 18961 18963 28
15171 18961 18964 28
15172 18961 18965 28
15173 18966 18967 28
15174 18966 18968 28
15175 18966 18969 28
15176 18966 18970 28
15177 18971 18972 28
15178 18971 18973 28
15179 18971 18974 28
15180 18971 18975 28
15181 18976 18977 28
15182 18976 18978 28
15183 18976 18979 28
15184 18976 18980 28
15185 18981 18982 28
15186 18981 18983 28
15187 18981 18984 28
15188 18981 18985 28
15189 18986 18987 28
15190 18986 18988 28
15191 18986 18989 28
15192 18986 18990 28
15193 18991 18992 28
15194 18991 18993 28
15195 18991 18994 28
15196 18991 18995 28
15197 18996 18997 28
15198 18996 18998 28
15199 18996 18999 28
15200 18996 19000 28
15201 19001 19002 28
15202 19001 19003 28
15203 19001 19004 28
15204 19001 19005 28
15205 19006 19007 28
15206 19006 19008 28
15207 19006 19009 28
15208 19006 19010 28
15209 19011 19012 28
15210 19011 19013 28
15211 19011 19014 28
15212 19011 19015 28
15213 19016 19017 28
15214 19016 19018 28
15215 19016 19019 28
15216 19016 19020 28
15217 19021 19022 28
15218 19021 19023 28
15219 19021 19024 28
15220 19021 19025 28
15221 19026 19027 28
15222 19026 19028 28
15223 19026 19029 28
15224 19026 19030 28
15225 19031 19032 28
15226 19031 19033 28
15227 19031 19034 28
15228 19031 19035 28
15229 19036 19037 28
15230 19036 19038 28
15231 19036 19039 28
15232 19036 19040 28
15233 19041 19042 28
15234 19041 19043 28
15235 19041 19044 28
15236 19041 19045 28
15237 19046 19047 28
15238 19046 19048 28
15239 19046 19049 28
15240 19046 19050 28
15241 19051 19052 28
15242 19051 19053 28
15243 19051 19054 28
15244 19051 19055 28
15245 19056 19057 28
15246 19056 19058 28
15247 19056 19059 28
15248 19056 19060 28
15249 19061 19062 28
15250 19061 19063 28
15251 19061 19064 28
15252 19061 19065 28
15253 19066 19067 28
15254 19066 19068 28
15255 19066 19069 28
15256 19066 19070 28
15257 19071 19072 28
15258 19071 19073 28
15259 19071 19074 28
15260 19071 19075 28
15261 19076 19077 28
15262 19076 19078 28
15263 19076 19079 28
15264 19076 19080 28
15265 19081 19082 28
15266 19081 19083 28
15267 19081 19084 28
15268 19081 19085 28
15269 19086 19087 28
15270 19086 19088 28
15271 19086 19089 28
15272 19086 19090 28
15273 19091 19092 28
15274 19091 19093 28
15275 19091 19094 28
15276 19091 19095 28
15277 19096 19097 28
15278 19096 19098 28
15279 19096 19099 28
15280 19096 19100 28
15281 19101 19102 28
15282 19101 19103 28
15283 19101 19104 28
15284 19101 19105 28
15285 19106 19107 28
15286 19106 19108 28
15287 19106 19109 28
15288 19106 19110 28
15289 19111 19112 28
15290 19111 19113 28
15291 19111 19114 28
15292 19111 19115 28
15293 19116 19117 28
15294 19116 19118 28
15295 19116 19119 28
15296 19116 19120 28
15297 19121 19122 28
15298 19121 19123 28
15299 19121 19124 28
15300 19121 19125 28
15301 19126 19127 28
15302 19126 19128 28
15303 19126 19129 28
15304 19126 19130 28
15305 19131 19132 28
15306 19131 19133 28
15307 19131 19134 28
15308 19131 19135 28
15309 19136 19137 28
15310 19136 19138 28
15311 19136 19139 28
15312 19136 19140 28
15313 19141 19142 28
15314 19141 19143 28
15315 19141 19144 28
15316 19141 19145 28
15317 19146 19147 28
15318 19146 19148 28
15319 19146 19149 28
15320 19146 19150 28
15321 19151 19152 28
15322 19151 19153 28
15323 19151 19154 28
15324 19151 19155 28
15325 19156 19157 28
15326 19156 19158 28
15327 19156 19159 28
15328 19156 19160 28
15329 19161 19162 28
15330 19161 19163 28
15331 19161 19164 28
15332 19161 19165 28
15333 19166 19167 28
15334 19166 19168 28
15335 19166 19169 28
15336 19166 19170 28
15337 19171 19172 28
15338 19171 19173 28
15339 19171 19174 28
15340 19171 19175 28
15341 19176 19177 28
15342 19176 19178 28
15343 19176 19179 28
15344 19176 19180 28
15345 19181 19182 28
15346 19181 19183 28
15347 19181 19184 28
15348 19181 19185 28
15349 19186 19187 28
15350 19186 19188 28
15351 19186 19189 28
15352 19186 19190 28
15353 19191 19192 28
15354 19191 19193 28
15355 19191 19194 28
15356 19191 19195 28
15357 19196 19197 28
15358 19196 19198 28
15359 19196 19199 28
15360 19196 19200 28
15361 19201 19202 28
15362 19201 19203 28
15363 19201 19204 28
15364 19201 19205 28
15365 19206 19207 28
15366 19206 19208 28
15367 19206 19209 28
15368 19206 19210 28
15369 19211 19212 28
15370 19211 19213 28
15371 19211 19214 28
15372 19211 19215 28
15373 19216 19217 28
15374 19216 19218 28
15375 19216 19219 28
15376 19216 19220 28
15377 19221 19222 28
15378 19221 19223 28
15379 19221 19224 28
15380 19221 19225 28
15381 19226 19227 28
15382 19226 19228 28
15383 19226 19229 28
15384 19226 19230 28
15385 19231 19232 28
15386 19231 19233 28
15387 19231 19234 28
15388 19231 19235 28
15389 19236 19237 28
15390 19236 19238 28
15391 19236 19239 28
15392 19236 19240 28
15393 19241 19242 28
15394 19241 19243 28
15395 19241 19244 28
15396 19241 19245 28
15397 19246 19247 28
15398 19246 19248 28
15399 19246 19249 28
15400 19246 19250 28
15401 19251 19252 28
15402 19251 19253 28
15403 19251 19254 28
15404 19251 19255 28
15405 19256 19257 28
15406 19256 19258 28
15407 19256 19259 28
15408 19256 19260 28
15409 19261 19262 28
15410 19261 19263 28
15411 19261 19264 28
15412 19261 19265 28
15413 19266 19267 28
15414 19266 19268 28
15415 19266 19269 28
15416 19266 19270 28
15417 19271 19272 28
15418 19271 19273 28
15419 19271 19274 28
15420 19271 19275 28
15421 19276 19277 28
15422 19276 19278 28
15423 19276 19279 28
15424 19276 19280 28
15425 19281 19282 28
15426 19281 19283 28
15427 19281 19284 28
15428 19281 19285 28
15429 19286 19287 28
15430 19286 19288 28
15431 19286 19289 28
15432 19286 19290 28
15433 19291 19292 28
15434 19291 19293 28
15435 19291 19294 28
15436 19291 19295 28
15437 19296 19297 28
15438 19296 19298 28
15439 19296 19299 28
15440 19296 19300 28
15441 19301 19302 28
15442 19301 19303 28
15443 19301 19304 28
15444 19301 19305 28
15445 19306 19307 28
15446 19306 19308 28
15447 19306 19309 28
15448 19306 19310 28
15449 19311 19312 28
15450 19311 19313 28
15451 19311 19314 28
15452 19311 19315 28
15453 19316 19317 28
15454 19316 19318 28
15455 19316 19319 28
15456 19316 19320 28
15457 19321 19322 28
15458 19321 19323 28
15459 19321 19324 28
15460 19321 19325 28
15461 19326 19327 28
15462 19326 19328 28
15463 19326 19329 28
15464 19326 19330 28
15465 19331 19332 28
15466 19331 19333 28
15467 19331 19334 28
15468 19331 19335 28
15469 19336 19337 28
15470 19336 19338 28
15471 19336 19339 28
15472 19336 19340 28
15473 19341 19342 28
15474 19341 19343 28
15475 19341 19344 28
15476 19341 19345 28
15477 19346 19347 28
15478 19346 19348 28
15479 19346 19349 28
15480 19346 19350 28
15481 19351 19352 28
15482 19351 19353 28
15483 19351 19354 28
15484 19351 19355 28
15485 19356 19357 28
15486 19356 19358 28
15487 19356 19359 28
15488 19356 19360 28
15489 19361 19362 28
15490 19361 19363 28
15491 19361 19364 28
15492 19361 19365 28
15493 19366 19367 28
15494 19366 19368 28
15495 19366 19369 28
15496 19366 19370 28
15497 19371 19372 28
15498 19371 19373 28
15499 19371 19374 28
15500 19371 19375 28
15501 19376 19377 28
15502 19376 19378 28
15503 19376 19379 28
15504 19376 19380 28
15505 19381 19382 28
15506 19381 19383 28
15507 19381 19384 28
15508 19381 19385 28
15509 19386 19387 28
15510 19386 19388 28
15511 19386 19389 28
15512 19386 19390 28
15513 19391 19392 28
15514 19391 19393 28
15515 19391 19394 28
15516 19391 19395 28
15517 19396 19397 28
15518 19396 19398 28
15519 19396 19399 28
15520 19396 19400 28
15521 19401 19402 28
15522 19401 19403 28
15523 19401 19404 28
15524 19401 19405 28
15525 19406 19407 28
15526 19406 19408 28
15527 19406 19409 28
15528 19406 19410 28
15529 19411 19412 28
15530 19411 19413 28
15531 19411 19414 28
15532 19411 19415 28
15533 19416 19417 28
15534 19416 19418 28
15535 19416 19419 28
15536 19416 19420 28
15537 19421 19422 28
15538 19421 19423 28
15539 19421 19424 28
15540 19421 19425 28
15541 19426 19427 28
15542 19426 19428 28
15543 19426 19429 28
15544 19426 19430 28
15545 19431 19432 28
15546 19431 19433 28
15547 19431 19434 28
15548 19431 19435 28
15549 19436 19437 28
15550 19436 19438 28
15551 19436 19439 28
15552 19436 19440 28
15553 19441 19442 28
15554 19441 19443 28
15555 19441 19444 28
15556 19441 19445 28
15557 19446 19447 28
15558 19446 19448 28
15559 19446 19449 28
15560 19446 19450 28
15561 19451 19452 28
15562 19451 19453 28
15563 19451 19454 28
15564 19451 19455 28
15565 19456 19457 28
15566 19456 19458 28
15567 19456 19459 28
15568 19456 19460 28
15569 19461 19462 28
15570 19461 19463 28
15571 19461 19464 28
15572 19461 19465 28
15573 19466 19467 28
15574 19466 19468 28
15575 19466 19469 28
15576 19466 19470 28
15577 19471 19472 28
15578 19471 19473 28
15579 19471 19474 28
15580 19471 19475 28
15581 19476 19477 28
15582 19476 19478 28
15583 19476 19479 28
15584 19476 19480 28
15585 19481 19482 28
15586 19481 19483 28
15587 19481 19484 28
15588 19481 19485 28
15589 19486 19487 28
15590 19486 19488 28
15591 19486 19489 28
15592 19486 19490 28
15593 19491 19492 28
15594 19491 19493 28
15595 19491 19494 28
15596 19491 19495 28
15597 19496 19497 28
15598 19496 19498 28
15599 19496 19499 28
15600 19496 19500 28
15601 19501 19502 28
15602 19501 19503 28
15603 19501 19504 28
15604 19501 19505 28
15605 19506 19507 28
15606 19506 19508 28
15607 19506 19509 28
15608 19506 19510 28
15609 19511 19512 28
15610 19511 19513 28
15611 19511 19514 28
15612 19511 19515 28
15613 19516 19517 28
15614 19516 19518 28
15615 19516 19519 28
15616 19516 19520 28
15617 19521 19522 28
15618 19521 19523 28
15619 19521 19524 28
15620 19521 19525 28
15621 19526 19527 28
15622 19526 19528 28
15623 19526 19529 28
15624 19526 19530 28
15625 19531 19532 28
15626 19531 19533 28
15627 19531 19534 28
15628 19531 19535 28
15629 19536 19537 28
15630 19536 19538 28
15631 19536 19539 28
15632 19536 19540 28
15633 19541 19542 28
15634 19541 19543 28
15635 19541 19544 28
15636 19541 19545 28
15637 19546 19547 28
15638 19546 19548 28
15639 19546 19549 28
15640 19546 19550 28
15641 19551 19552 28
15642 19551 19553 28
15643 19551 19554 28
15644 19551 19555 28
15645 19556 19557 28
15646 19556 19558 28
15647 19556 19559 28
15648 19556 19560 28
15649 19561 19562 28
15650 19561 19563 28
15651 19561 19564 28
15652 19561 19565 28
15653 19566 19567 28
15654 19566 19568 28
15655 19566 19569 28
15656 19566 19570 28
15657 19571 19572 28
15658 19571 19573 28
15659 19571 19574 28
15660 19571 19575 28
15661 19576 19577 28
15662 19576 19578 28
15663 19576 19579 28
15664 19576 19580 28
15665 19581 19582 28
15666 19581 19583 28
15667 19581 19584 28
15668 19581 19585 28
15669 19586 19587 28
15670 19586 19588 28
15671 19586 19589 28
15672 19586 19590 28
15673 19591 19592 28
15674 19591 19593 28
15675 19591 19594 28
15676 19591 19595 28
15677 19596 19597 28
15678 19596 19598 28
15679 19596 19599 28
15680 19596 19600 28
15681 19601 19602 28
15682 19601 19603 28
15683 19601 19604 28
15684 19601 19605 28
15685 19606 19607 28
15686 19606 19608 28
15687 19606 19609 28
15688 19606 19610 28
15689 19611 19612 28
15690 19611 19613 28
15691 19611 19614 28
15692 19611 19615 28
15693 19616 19617 28
15694 19616 19618 28
15695 19616 19619 28
15696 19616 19620 28
15697 19621 19622 28
15698 19621 19623 28
15699 19621 19624 28
15700 19621 19625 28
15701 19626 19627 28
15702 19626 19628 28
15703 19626 19629 28
15704 19626 19630 28
15705 19631 19632 28
15706 19631 19633 28
15707 19631 19634 28
15708 19631 19635 28
15709 19636 19637 28
15710 19636 19638 28
15711 19636 19639 28
15712 19636 19640 28
15713 19641 19642 28
15714 19641 19643 28
15715 19641 19644 28
15716 19641 19645 28
15717 19646 19647 28
15718 19646 19648 28
15719 19646 19649 28
15720 19646 19650 28
15721 19651 19652 28
15722 19651 19653 28
15723 19651 19654 28
15724 19651 19655 28
15725 19656 19657 28
15726 19656 19658 28
15727 19656 19659 28
15728 19656 19660 28
15729 19661 19662 28
15730 19661 19663 28
15731 19661 19664 28
15732 19661 19665 28
15733 19666 19667 28
15734 19666 19668 28
15735 19666 19669 28
15736 19666 19670 28
15737 19671 19672 28
15738 19671 19673 28
15739 19671 19674 28
15740 19671 19675 28
15741 19676 19677 28
15742 19676 19678 28
15743 19676 19679 28
15744 19676 19680 28
15745 19681 19682 28
15746 19681 19683 28
15747 19681 19684 28
15748 19681 19685 28
15749 19686 19687 28
15750 19686 19688 28
15751 19686 19689 28
15752 19686 19690 28
15753 19691 19692 28
15754 19691 19693 28
15755 19691 19694 28
15756 19691 19695 28
15757 19696 19697 28
15758 19696 19698 28
15759 19696 19699 28
15760 19696 19700 28
15761 19701 19702 28
15762 19701 19703 28
15763 19701 19704 28
15764 19701 19705 28
15765 19706 19707 28
15766 19706 19708 28
15767 19706 19709 28
15768 19706 19710 28
15769 19711 19712 28
15770 19711 19713 28
15771 19711 19714 28
15772 19711 19715 28
15773 19716 19717 28
15774 19716 19718 28
15775 19716 19719 28
15776 19716 19720 28
15777 19721 19722 28
15778 19721 19723 28
15779 19721 19724 28
15780 19721 19725 28
15781 19726 19727 28
15782 19726 19728 28
15783 19726 19729 28
15784 19726 19730 28
15785 19731 19732 28
15786 19731 19733 28
15787 19731 19734 28
15788 19731 19735 28
15789 19736 19737 28
15790 19736 19738 28
15791 19736 19739 28
15792 19736 19740 28
15793 19741 19742 28
15794 19741 19743 28
15795 19741 19744 28
15796 19741 19745 28
15797 19746 19747 28
15798 19746 19748 28
15799 19746 19749 28
15800 19746 19750 28
15801 19751 19752 28
15802 19751 19753 28
15803 19751 19754 28
15804 19751 19755 28
15805 19756 19757 28
15806 19756 19758 28
15807 19756 19759 28
15808 19756 19760 28
15809 19761 19762 28
15810 19761 19763 28
15811 19761 19764 28
15812 19761 19765 28
15813 19766 19767 28
15814 19766 19768 28
15815 19766 19769 28
15816 19766 19770 28
15817 19771 19772 28
15818 19771 19773 28
15819 19771 19774 28
15820 19771 19775 28
15821 19776 19777 28
15822 19776 19778 28
15823 19776 19779 28
15824 19776 19780 28
15825 19781 19782 28
15826 19781 19783 28
15827 19781 19784 28
15828 19781 19785 28
15829 19786 19787 28
15830 19786 19788 28
15831 19786 19789 28
15832 19786 19790 28
15833 19791 19792 28
15834 19791 19793 28
15835 19791 19794 28
15836 19791 19795 28
15837 19796 19797 28
15838 19796 19798 28
15839 19796 19799 28
15840 19796 19800 28
15841 19801 19802 28
15842 19801 19803 28
15843 19801 19804 28
15844 19801 19805 28
15845 19806 19807 28
15846 19806 19808 28
15847 19806 19809 28
15848 19806 19810 28
15849 19811 19812 28
15850 19811 19813 28
15851 19811 19814 28
15852 19811 19815 28
15853 19816 19817 28
15854 19816 19818 28
15855 19816 19819 28
15856 19816 19820 28
15857 19821 19822 28
15858 19821 19823 28
15859 19821 19824 28
15860 19821 19825 28
15861 19826 19827 28
15862 19826 19828 28
15863 19826 19829 28
15864 19826 19830 28
15865 19831 19832 28
15866 19831 19833 28
15867 19831 19834 28
15868 19831 19835 28
15869 19836 19837 28
15870 19836 19838 28
15871 19836 19839 28
15872 19836 19840 28
15873 19841 19842 28
15874 19841 19843 28
15875 19841 19844 28
15876 19841 19845 28
15877 19846 19847 28
15878 19846 19848 28
15879 19846 19849 28
15880 19846 19850 28
15881 19851 19852 28
15882 19851 19853 28
15883 19851 19854 28
15884 19851 19855 28
15885 19856 19857 28
15886 19856 19858 28
15887 19856 19859 28
15888 19856 19860 28
15889 19861 19862 28
15890 19861 19863 28
15891 19861 19864 28
15892 19861 19865 28
15893 19866 19867 28
15894 19866 19868 28
15895 19866 19869 28
15896 19866 19870 28
15897 19871 19872 28
15898 19871 19873 28
15899 19871 19874 28
15900 19871 19875 28
15901 19876 19877 28
15902 19876 19878 28
15903 19876 19879 28
15904 19876 19880 28
15905 19881 19882 28
15906 19881 19883 28
15907 19881 19884 28
15908 19881 19885 28
15909 19886 19887 28
15910 19886 19888 28
15911 19886 19889 28
15912 19886 19890 28
15913 19891 19892 28
15914 19891 19893 28
15915 19891 19894 28
15916 19891 19895 28
15917 19896 19897 28
15918 19896 19898 28
15919 19896 19899 28
15920 19896 19900 28
15921 19901 19902 28
15922 19901 19903 28
15923 19901 19904 28
15924 19901 19905 28
15925 19906 19907 28
15926 19906 19908 28
15927 19906 19909 28
15928 19906 19910 28
15929 19911 19912 28
15930 19911 19913 28
15931 19911 19914 28
15932 19911 19915 28
15933 19916 19917 28
15934 19916 19918 28
15935 19916 19919 28
15936 19916 19920 28
15937 19921 19922 28
15938 19921 19923 28
15939 19921 19924 28
15940 19921 19925 28
15941 19926 19927 28
15942 19926 19928 28
15943 19926 19929 28
15944 19926 19930 28
15945 19931 19932 28
15946 19931 19933 28
15947 19931 19934 28
15948 19931 19935 28
15949 19936 19937 28
15950 19936 19938 28
15951 19936 19939 28
15952 19936 19940 28
15953 19941 19942 28
15954 19941 19943 28
15955 19941 19944 28
15956 19941 19945 28
15957 19946 19947 28
15958 19946 19948 28
15959 19946 19949 28
15960 19946 19950 28
15961 19951 19952 28
15962 19951 19953 28
15963 19951 19954 28
15964 19951 19955 28
15965 19956 19957 28
15966 19956 19958 28
15967 19956 19959 28
15968 19956 19960 28
15969 19961 19962 28
15970 19961 19963 28
15971 19961 19964 28
15972 19961 19965 28
15973 19966 19967 28
15974 19966 19968 28
15975 19966 19969 28
15976 19966 19970 28
15977 19971 19972 28
15978 19971 19973 28
15979 19971 19974 28
15980 19971 19975 28
15981 19976 19977 28
15982 19976 19978 28
15983 19976 19979 28
15984 19976 19980 28
15985 19981 19982 28
15986 19981 19983 28
15987 19981 19984 28
15988 19981 19985 28
15989 19986 19987 28
15990 19986 19988 28
15991 19986 19989 28
15992 19986 19990 28
15993 19991 19992 28
15994 19991 19993 28
15995 19991 19994 28
15996 19991 19995 28
15997 19996 19997 28
15998 19996 19998 28
15999 19996 19999 28
16000 19996 20000 28
16001 20001 20002 28
16002 20001 20003 28
16003 20001 20004 28
16004 20001 20005 28
16005 20006 20007 28
16006 20006 20008 28
16007 20006 20009 28
16008 20006 20010 28
16009 20011 20012 28
16010 20011 20013 28
16011 20011 20014 28
16012 20011 20015 28
16013 20016 20017 28
16014 20016 20018 28
16015 20016 20019 28
16016 20016 20020 28
16017 20021 20022 28
16018 20021 20023 28
16019 20021 20024 28
16020 20021 20025 28
16021 20026 20027 28
16022 20026 20028 28
16023 20026 20029 28
16024 20026 20030 28
16025 20031 20032 28
16026 20031 20033 28
16027 20031 20034 28
16028 20031 20035 28
16029 20036 20037 28
16030 20036 20038 28
16031 20036 20039 28
16032 20036 20040 28
16033 20041 20042 28
16034 20041 20043 28
16035 20041 20044 28
16036 20041 20045 28
16037 20046 20047 28
16038 20046 20048 28
16039 20046 20049 28
16040 20046 20050 28
16041 20051 20052 28
16042 20051 20053 28
16043 20051 20054 28
16044 20051 20055 28
16045 20056 20057 28
16046 20056 20058 28
16047 20056 20059 28
16048 20056 20060 28
16049 20061 20062 28
16050 20061 20063 28
16051 20061 20064 28
16052 20061 20065 28
16053 20066 20067 28
16054 20066 20068 28
16055 20066 20069 28
16056 20066 20070 28
16057 20071 20072 28
16058 20071 20073 28
16059 20071 20074 28
16060 20071 20075 28
16061 20076 20077 28
16062 20076 20078 28
16063 20076 20079 28
16064 20076 20080 28
16065 20081 20082 28
16066 20081 20083 28
16067 20081 20084 28
16068 20081 20085 28
16069 20086 20087 28
16070 20086 20088 28
16071 20086 20089 28
16072 20086 20090 28
16073 20091 20092 28
16074 20091 20093 28
16075 20091 20094 28
16076 20091 20095 28
16077 20096 20097 28
16078 20096 20098 28
16079 20096 20099 28
16080 20096 20100 28
16081 20101 20102 28
16082 20101 20103 28
16083 20101 20104 28
16084 20101 20105 28
16085 20106 20107 28
16086 20106 20108 28
16087 20106 20109 28
16088 20106 20110 28
16089 20111 20112 28
16090 20111 20113 28
16091 20111 20114 28
16092 20111 20115 28
16093 20116 20117 28
16094 20116 20118 28
16095 20116 20119 28
16096 20116 20120 28
16097 20121 20122 28
16098 20121 20123 28
16099 20121 20124 28
16100 20121 20125 28
16101 20126 20127 28
16102 20126 20128 28
16103 20126 20129 28
16104 20126 20130 28
16105 20131 20132 28
16106 20131 20133 28
16107 20131 20134 28
16108 20131 20135 28
16109 20136 20137 28
16110 20136 20138 28
16111 20136 20139 28
16112 20136 20140 28
16113 20141 20142 28
16114 20141 20143 28
16115 20141 20144 28
16116 20141 20145 28
16117 20146 20147 28
16118 20146 20148 28
16119 20146 20149 28
16120 20146 20150 28
16121 20151 20152 28
16122 20151 20153 28
16123 20151 20154 28
16124 20151 20155 28
16125 20156 20157 28
16126 20156 20158 28
16127 20156 20159 28
16128 20156 20160 28
16129 20161 20162 28
16130 20161 20163 28
16131 20161 20164 28
16132 20161 20165 28
16133 20166 20167 28
16134 20166 20168 28
16135 20166 20169 28
16136 20166 20170 28
16137 20171 20172 28
16138 20171 20173 28
16139 20171 20174 28
16140 20171 20175 28
16141 20176 20177 28
16142 20176 20178 28
16143 20176 20179 28
16144 20176 20180 28
16145 20181 20182 28
16146 20181 20183 28
16147 20181 20184 28
16148 20181 20185 28
16149 20186 20187 28
16150 20186 20188 28
16151 20186 20189 28
16152 20186 20190 28
16153 20191 20192 28
16154 20191 20193 28
16155 20191 20194 28
16156 20191 20195 28
16157 20196 20197 28
16158 20196 20198 28
16159 20196 20199 28
16160 20196 20200 28
16161 20201 20202 28
16162 20201 20203 28
16163 20201 20204 28
16164 20201 20205 28
16165 20206 20207 28
16166 20206 20208 28
16167 20206 20209 28
16168 20206 20210 28
16169 20211 20212 28
16170 20211 20213 28
16171 20211 20214 28
16172 20211 20215 28
16173 20216 20217 28
16174 20216 20218 28
16175 20216 20219 28
16176 20216 20220 28
16177 20221 20222 28
16178 20221 20223 28
16179 20221 20224 28
16180 20221 20225 28
16181 20226 20227 28
16182 20226 20228 28
16183 20226 20229 28
16184 20226 20230 28
16185 20231 20232 28
16186 20231 20233 28
16187 20231 20234 28
16188 20231 20235 28
16189 20236 20237 28
16190 20236 20238 28
16191 20236 20239 28
16192 20236 20240 28
16193 20241 20242 28
16194 20241 20243 28
16195 20241 20244 28
16196 20241 20245 28
16197 20246 20247 28
16198 20246 20248 28
16199 20246 20249 28
16200 20246 20250 28
16201 20251 20252 28
16202 20251 20253 28
16203 20251 20254 28
16204 20251 20255 28
16205 20256 20257 28
16206 20256 20258 28
16207 20256 20259 28
16208 20256 20260 28
16209 20261 20262 28
16210 20261 20263 28
16211 20261 20264 28
16212 20261 20265 28
16213 20266 20267 28
16214 20266 20268 28
16215 20266 20269 28
16216 20266 20270 28
16217 20271 20272 28
16218 20271 20273 28
16219 20271 20274 28
16220 20271 20275 28
16221 20276 20277 28
16222 20276 20278 28
16223 20276 20279 28
16224 20276 20280 28
16225 20281 20282 28
16226 20281 20283 28
16227 20281 20284 28
16228 20281 20285 28
16229 20286 20287 28
16230 20286 20288 28
16231 20286 20289 28
16232 20286 20290 28
16233 20291 20292 28
16234 20291 20293 28
16235 20291 20294 28
16236 20291 20295 28
16237 20296 20297 28
16238 20296 20298 28
16239 20296 20299 28
16240 20296 20300 28
16241 20301 20302 28
16242 20301 20303 28
16243 20301 20304 28
16244 20301 20305 28
16245 20306 20307 28
16246 20306 20308 28
16247 20306 20309 28
16248 20306 20310 28
16249 20311 20312 28
16250 20311 20313 28
16251 20311 20314 28
16252 20311 20315 28
16253 20316 20317 28
16254 20316 20318 28
16255 20316 20319 28
16256 20316 20320 28
16257 20321 20322 28
16258 20321 20323 28
16259 20321 20324 28
16260 20321 20325 28
16261 20326 20327 28
16262 20326 20328 28
16263 20326 20329 28
16264 20326 20330 28
16265 20331 20332 28
16266 20331 20333 28
16267 20331 20334 28
16268 20331 20335 28
16269 20336 20337 28
16270 20336 20338 28
16271 20336 20339 28
16272 20336 20340 28
16273 20341 20342 28
16274 20341 20343 28
16275 20341 20344 28
16276 20341 20345 28
16277 20346 20347 28
16278 20346 20348 28
16279 20346 20349 28
16280 20346 20350 28
16281 20351 20352 28
16282 20351 20353 28
16283 20351 20354 28
16284 20351 20355 28
16285 20356 20357 28
16286 20356 20358 28
16287 20356 20359 28
16288 20356 20360 28
16289 20361 20362 28
16290 20361 20363 28
16291 20361 20364 28
16292 20361 20365 28
16293 20366 20367 28
16294 20366 20368 28
16295 20366 20369 28
16296 20366 20370 28
16297 20371 20372 28
16298 20371 20373 28
16299 20371 20374 28
16300 20371 20375 28
16301 20376 20377 28
16302 20376 20378 28
16303 20376 20379 28
16304 20376 20380 28
16305 20381 20382 28
16306 20381 20383 28
16307 20381 20384 28
16308 20381 20385 28
16309 20386 20387 28
16310 20386 20388 28
16311 20386 20389 28
16312 20386 20390 28
16313 20391 20392 28
16314 20391 20393 28
16315 20391 20394 28
16316 20391 20395 28
16317 20396 20397 28
16318 20396 20398 28
16319 20396 20399 28
16320 20396 20400 28
16321 20401 20402 28
16322 20401 20403 28
16323 20401 20404 28
16324 20401 20405 28
16325 20406 20407 28
16326 20406 20408 28
16327 20406 20409 28
16328 20406 20410 28
16329 20411 20412 28
16330 20411 20413 28
16331 20411 20414 28
16332 20411 20415 28
16333 20416 20417 28
16334 20416 20418 28
16335 20416 20419 28
16336 20416 20420 28
16337 20421 20422 28
16338 20421 20423 28
16339 20421 20424 28
16340 20421 20425 28
16341 20426 20427 28
16342 20426 20428 28
16343 20426 20429 28
16344 20426 20430 28
16345 20431 20432 28
16346 20431 20433 28
16347 20431 20434 28
16348 20431 20435 28
16349 20436 20437 28
16350 20436 20438 28
16351 20436 20439 28
16352 20436 20440 28
16353 20441 20442 28
16354 20441 20443 28
16355 20441 20444 28
16356 20441 20445 28
16357 20446 20447 28
16358 20446 20448 28
16359 20446 20449 28
16360 20446 20450 28
16361 20451 20452 28
16362 20451 20453 28
16363 20451 20454 28
16364 20451 20455 28
16365 20456 20457 28
16366 20456 20458 28
16367 20456 20459 28
16368 20456 20460 28
16369 20461 20462 28
16370 20461 20463 28
16371 20461 20464 28
16372 20461 20465 28
16373 20466 20467 28
16374 20466 20468 28
16375 20466 20469 28
16376 20466 20470 28
16377 20471 20472 28
16378 20471 20473 28
16379 20471 20474 28
16380 20471 20475 28
16381 20476 20477 28
16382 20476 20478 28
16383 20476 20479 28
16384 20476 20480 28
16385 20481 20482 28
16386 20481 20483 28
16387 20481 20484 28
16388 20481 20485 28
16389 20486 20487 28
16390 20486 20488 28
16391 20486 20489 28
16392 20486 20490 28
16393 20491 20492 28
16394 20491 20493 28
16395 20491 20494 28
16396 20491 20495 28
16397 20496 20497 28
16398 20496 20498 28
16399 20496 20499 28
16400 20496 20500 28
16401 20501 20502 28
16402 20501 20503 28
16403 20501 20504 28
16404 20501 20505 28
16405 20506 20507 28
16406 20506 20508 28
16407 20506 20509 28
16408 20506 20510 28
16409 20511 20512 28
16410 20511 20513 28
16411 20511 20514 28
16412 20511 20515 28
16413 20516 20517 28
16414 20516 20518 28
16415 20516 20519 28
16416 20516 20520 28
16417 20521 20522 28
16418 20521 20523 28
16419 20521 20524 28
16420 20521 20525 28
16421 20526 20527 28
16422 20526 20528 28
16423 20526 20529 28
16424 20526 20530 28
16425 20531 20532 28
16426 20531 20533 28
16427 20531 20534 28
16428 20531 20535 28
16429 20536 20537 28
16430 20536 20538 28
16431 20536 20539 28
16432 20536 20540 28
16433 20541 20542 28
16434 20541 20543 28
16435 20541 20544 28
16436 20541 20545 28
16437 20546 20547 28
16438 20546 20548 28
16439 20546 20549 28
16440 20546 20550 28
16441 20551 20552 28
16442 20551 20553 28
16443 20551 20554 28
16444 20551 20555 28
16445 20556 20557 28
16446 20556 20558 28
16447 20556 20559 28
16448 20556 20560 28
16449 20561 20562 28
16450 20561 20563 28
16451 20561 20564 28
16452 20561 20565 28
16453 20566 20567 28
16454 20566 20568 28
16455 20566 20569 28
16456 20566 20570 28
16457 20571 20572 28
16458 20571 20573 28
16459 20571 20574 28
16460 20571 20575 28
16461 20576 20577 28
16462 20576 20578 28
16463 20576 20579 28
16464 20576 20580 28
16465 20581 20582 28
16466 20581 20583 28
16467 20581 20584 28
16468 20581 20585 28
16469 20586 20587 28
16470 20586 20588 28
16471 20586 20589 28
16472 20586 20590 28
16473 20591 20592 28
16474 20591 20593 28
16475 20591 20594 28
16476 20591 20595 28
16477 20596 20597 28
16478 20596 20598 28
16479 20596 20599 28
16480 20596 20600 28
16481 20601 20602 28
16482 20601 20603 28
16483 20601 20604 28
16484 20601 20605 28
16485 20606 20607 28
16486 20606 20608 28
16487 20606 20609 28
16488 20606 20610 28
16489 20611 20612 28
16490 20611 20613 28
16491 20611 20614 28
16492 20611 20615 28
16493 20616 20617 28
16494 20616 20618 28
16495 20616 20619 28
16496 20616 20620 28
16497 20621 20622 28
16498 20621 20623 28
16499 20621 20624 28
16500 20621 20625 28
16501 20626 20627 28
16502 20626 20628 28
16503 20626 20629 28
16504 20626 20630 28
16505 20631 20632 28
16506 20631 20633 28
16507 20631 20634 28
16508 20631 20635 28
16509 20636 20637 28
16510 20636 20638 28
16511 20636 20639 28
16512 20636 20640 28
16513 20641 20642 28
16514 20641 20643 28
16515 20641 20644 28
16516 20641 20645 28
16517 20646 20647 28
16518 20646 20648 28
16519 20646 20649 28
16520 20646 20650 28
16521 20651 20652 28
16522 20651 20653 28
16523 20651 20654 28
16524 20651 20655 28
16525 20656 20657 28
16526 20656 20658 28
16527 20656 20659 28
16528 20656 20660 28
16529 20661 20662 28
16530 20661 20663 28
16531 20661 20664 28
16532 20661 20665 28
16533 20666 20667 28
16534 20666 20668 28
16535 20666 20669 28
16536 20666 20670 28
16537 20671 20672 28
16538 20671 20673 28
16539 20671 20674 28
16540 20671 20675 28
16541 20676 20677 28
16542 20676 20678 28
16543 20676 20679 28
16544 20676 20680 28
16545 20681 20682 28
16546 20681 20683 28
16547 20681 20684 28
16548 20681 20685 28
16549 20686 20687 28
16550 20686 20688 28
16551 20686 20689 28
16552 20686 20690 28
16553 20691 20692 28
16554 20691 20693 28
16555 20691 20694 28
16556 20691 20695 28
16557 20696 20697 28
16558 20696 20698 28
16559 20696 20699 28
16560 20696 20700 28
16561 20701 20702 28
16562 20701 20703 28
16563 20701 20704 28
16564 20701 20705 28
16565 20706 20707 28
16566 20706 20708 28
16567 20706 20709 28
16568 20706 20710 28
16569 20711 20712 28
16570 20711 20713 28
16571 20711 20714 28
16572 20711 20715 28
16573 20716 20717 28
16574 20716 20718 28
16575 20716 20719 28
16576 20716 20720 28
16577 20721 20722 28
16578 20721 20723 28
16579 20721 20724 28
16580 20721 20725 28
16581 20726 20727 28
16582 20726 20728 28
16583 20726 20729 28
16584 20726 20730 28
16585 20731 20732 28
16586 20731 20733 28
16587 20731 20734 28
16588 20731 20735 28
16589 20736 20737 28
16590 20736 20738 28
16591 20736 20739 28
16592 20736 20740 28
16593 20741 20742 28
16594 20741 20743 28
16595 20741 20744 28
16596 20741 20745 28
16597 20746 20747 28
16598 20746 20748 28
16599 20746 20749 28
16600 20746 20750 28
16601 20751 20752 28
16602 20751 20753 28
16603 20751 20754 28
16604 20751 20755 28
16605 20756 20757 28
16606 20756 20758 28
16607 20756 20759 28
16608 20756 20760 28
16609 20761 20762 28
16610 20761 20763 28
16611 20761 20764 28
16612 20761 20765 28
16613 20766 20767 28
16614 20766 20768 28
16615 20766 20769 28
16616 20766 20770 28
16617 20771 20772 28
16618 20771 20773 28
16619 20771 20774 28
16620 20771 20775 28
16621 20776 20777 28
16622 20776 20778 28
16623 20776 20779 28
16624 20776 20780 28
16625 20781 20782 28
16626 20781 20783 28
16627 20781 20784 28
16628 20781 20785 28
16629 20786 20787 28
16630 20786 20788 28
16631 20786 20789 28
16632 20786 20790 28
16633 20791 20792 28
16634 20791 20793 28
16635 20791 20794 28
16636 20791 20795 28
16637 20796 20797 28
16638 20796 20798 28
16639 20796 20799 28
16640 20796 20800 28
16641 20801 20802 28
16642 20801 20803 28
16643 20801 20804 28
16644 20801 20805 28
16645 20806 20807 28
16646 20806 20808 28
16647 20806 20809 28
16648 20806 20810 28
16649 20811 20812 28
16650 20811 20813 28
16651 20811 20814 28
16652 20811 20815 28
16653 20816 20817 28
16654 20816 20818 28
16655 20816 20819 28
16656 20816 20820 28
16657 20821 20822 28
16658 20821 20823 28
16659 20821 20824 28
16660 20821 20825 28
16661 20826 20827 28
16662 20826 20828 28
16663 20826 20829 28
16664 20826 20830 28
16665 20831 20832 28
16666 20831 20833 28
16667 20831 20834 28
16668 20831 20835 28
16669 20836 20837 28
16670 20836 20838 28
16671 20836 20839 28
16672 20836 20840 28
16673 20841 20842 28
16674 20841 20843 28
16675 20841 20844 28
16676 20841 20845 28
16677 20846 20847 28
16678 20846 20848 28
16679 20846 20849 28
16680 20846 20850 28
16681 20851 20852 28
16682 20851 20853 28
16683 20851 20854 28
16684 20851 20855 28
16685 20856 20857 28
16686 20856 20858 28
16687 20856 20859 28
16688 20856 20860 28
16689 20861 20862 28
16690 20861 20863 28
16691 20861 20864 28
16692 20861 20865 28
16693 20866 20867 28
16694 20866 20868 28
16695 20866 20869 28
16696 20866 20870 28
16697 20871 20872 28
16698 20871 20873 28
16699 20871 20874 28
16700 20871 20875 28
16701 20876 20877 28
16702 20876 20878 28
16703 20876 20879 28
16704 20876 20880 28
16705 20881 20882 28
16706 20881 20883 28
16707 20881 20884 28
16708 20881 20885 28
16709 20886 20887 28
16710 20886 20888 28
16711 20886 20889 28
16712 20886 20890 28
16713 20891 20892 28
16714 20891 20893 28
16715 20891 20894 28
16716 20891 20895 28
16717 20896 20897 28
16718 20896 20898 28
16719 20896 20899 28
16720 20896 20900 28
16721 20901 20902 28
16722 20901 20903 28
16723 20901 20904 28
16724 20901 20905 28
16725 20906 20907 28
16726 20906 20908 28
16727 20906 20909 28
16728 20906 20910 28
16729 20911 20912 28
16730 20911 20913 28
16731 20911 20914 28
16732 20911 20915 28
16733 20916 20917 28
16734 20916 20918 28
16735 20916 20919 28
16736 20916 20920 28
16737 20921 20922 28
16738 20921 20923 28
16739 20921 20924 28
16740 20921 20925 28
16741 20926 20927 28
16742 20926 20928 28
16743 20926 20929 28
16744 20926 20930 28
16745 20931 20932 28
16746 20931 20933 28
16747 20931 20934 28
16748 20931 20935 28
16749 20936 20937 28
16750 20936 20938 28
16751 20936 20939 28
16752 20936 20940 28
16753 20941 20942 28
16754 20941 20943 28
16755 20941 20944 28
16756 20941 20945 28
16757 20946 20947 28
16758 20946 20948 28
16759 20946 20949 28
16760 20946 20950 28
16761 20951 20952 28
16762 20951 20953 28
16763 20951 20954 28
16764 20951 20955 28
16765 20956 20957 28
16766 20956 20958 28
16767 20956 20959 28
16768 20956 20960 28
16769 20961 20962 28
16770 20961 20963 28
16771 20961 20964 28
16772 20961 20965 28
16773 20966 20967 28
16774 20966 20968 28
16775 20966 20969 28
16776 20966 20970 28
16777 20971 20972 28
16778 20971 20973 28
16779 20971 20974 28
16780 20971 20975 28
16781 20976 20977 28
16782 20976 20978 28
16783 20976 20979 28
16784 20976 20980 28
16785 20981 20982 28
16786 20981 20983 28
16787 20981 20984 28
16788 20981 20985 28
16789 20986 20987 28
16790 20986 20988 28
16791 20986 20989 28
16792 20986 20990 28
16793 20991 20992 28
16794 20991 20993 28
16795 20991 20994 28
16796 20991 20995 28
16797 20996 20997 28
16798 20996 20998 28
16799 20996 20999 28
16800 20996 21000 28
16801 21001 21002 28
16802 21001 21003 28
16803 21001 21004 28
16804 21001 21005 28
16805 21006 21007 28
16806 21006 21008 28
16807 21006 21009 28
16808 21006 21010 28
16809 21011 21012 28
16810 21011 21013 28
16811 21011 21014 28
16812 21011 21015 28
16813 21016 21017 28
16814 21016 21018 28
16815 21016 21019 28
16816 21016 21020 28
16817 21021 21022 28
16818 21021 21023 28
16819 21021 21024 28
16820 21021 21025 28
16821 21026 21027 28
16822 21026 21028 28
16823 21026 21029 28
16824 21026 21030 28
16825 21031 21032 28
16826 21031 21033 28
16827 21031 21034 28
16828 21031 21035 28
16829 21036 21037 28
16830 21036 21038 28
16831 21036 21039 28
16832 21036 21040 28
16833 21041 21042 28
16834 21041 21043 28
16835 21041 21044 28
16836 21041 21045 28
16837 21046 21047 28
16838 21046 21048 28
16839 21046 21049 28
16840 21046 21050 28
16841 21051 21052 28
16842 21051 21053 28
16843 21051 21054 28
16844 21051 21055 28
16845 21056 21057 28
16846 21056 21058 28
16847 21056 21059 28
16848 21056 21060 28
16849 21061 21062 28
16850 21061 21063 28
16851 21061 21064 28
16852 21061 21065 28
16853 21066 21067 28
16854 21066 21068 28
16855 21066 21069 28
16856 21066 21070 28
16857 21071 21072 28
16858 21071 21073 28
16859 21071 21074 28
16860 21071 21075 28
16861 21076 21077 28
16862 21076 21078 28
16863 21076 21079 28
16864 21076 21080 28
16865 21081 21082 28
16866 21081 21083 28
16867 21081 21084 28
16868 21081 21085 28
16869 21086 21087 28
16870 21086 21088 28
16871 21086 21089 28
16872 21086 21090 28
16873 21091 21092 28
16874 21091 21093 28
16875 21091 21094 28
16876 21091 21095 28
16877 21096 21097 28
16878 21096 21098 28
16879 21096 21099 28
16880 21096 21100 28
16881 21101 21102 28
16882 21101 21103 28
16883 21101 21104 28
16884 21101 21105 28
16885 21106 21107 28
16886 21106 21108 28
16887 21106 21109 28
16888 21106 21110 28
16889 21111 21112 28
16890 21111 21113 28
16891 21111 21114 28
16892 21111 21115 28
16893 21116 21117 28
16894 21116 21118 28
16895 21116 21119 28
16896 21116 21120 28
16897 21121 21122 28
16898 21121 21123 28
16899 21121 21124 28
16900 21121 21125 28
16901 21126 21127 28
16902 21126 21128 28
16903 21126 21129 28
16904 21126 21130 28
16905 21131 21132 28
16906 21131 21133 28
16907 21131 21134 28
16908 21131 21135 28
16909 21136 21137 28
16910 21136 21138 28
16911 21136 21139 28
16912 21136 21140 28
16913 21141 21142 28
16914 21141 21143 28
16915 21141 21144 28
16916 21141 21145 28
16917 21146 21147 28
16918 21146 21148 28
16919 21146 21149 28
16920 21146 21150 28
16921 21151 21152 28
16922 21151 21153 28
16923 21151 21154 28
16924 21151 21155 28
16925 21156 21157 28
16926 21156 21158 28
16927 21156 21159 28
16928 21156 21160 28
16929 21161 21162 28
16930 21161 21163 28
16931 21161 21164 28
16932 21161 21165 28
16933 21166 21167 28
16934 21166 21168 28
16935 21166 21169 28
16936 21166 21170 28
16937 21171 21172 28
16938 21171 21173 28
16939 21171 21174 28
16940 21171 21175 28
16941 21176 21177 28
16942 21176 21178 28
16943 21176 21179 28
16944 21176 21180 28
16945 21181 21182 28
16946 21181 21183 28
16947 21181 21184 28
16948 21181 21185 28
16949 21186 21187 28
16950 21186 21188 28
16951 21186 21189 28
16952 21186 21190 28
16953 21191 21192 28
16954 21191 21193 28
16955 21191 21194 28
16956 21191 21195 28
16957 21196 21197 28
16958 21196 21198 28
16959 21196 21199 28
16960 21196 21200 28
16961 21201 21202 28
16962 21201 21203 28
16963 21201 21204 28
16964 21201 21205 28
16965 21206 21207 28
16966 21206 21208 28
16967 21206 21209 28
16968 21206 21210 28
16969 21211 21212 28
16970 21211 21213 28
16971 21211 21214 28
16972 21211 21215 28
16973 21216 21217 28
16974 21216 21218 28
16975 21216 21219 28
16976 21216 21220 28
16977 21221 21222 28
16978 21221 21223 28
16979 21221 21224 28
16980 21221 21225 28
16981 21226 21227 28
16982 21226 21228 28
16983 21226 21229 28
16984 21226 21230 28
16985 21231 21232 28
16986 21231 21233 28
16987 21231 21234 28
16988 21231 21235 28
16989 21236 21237 28
16990 21236 21238 28
16991 21236 21239 28
16992 21236 21240 28
16993 21241 21242 28
16994 21241 21243 28
16995 21241 21244 28
16996 21241 21245 28
16997 21246 21247 28
16998 21246 21248 28
16999 21246 21249 28
17000 21246 21250 28
17001 21251 21252 28
17002 21251 21253 28
17003 21251 21254 28
17004 21251 21255 28
17005 21256 21257 28
17006 21256 21258 28
17007 21256 21259 28
17008 21256 21260 28
17009 21261 21262 28
17010 21261 21263 28
17011 21261 21264 28
17012 21261 21265 28
17013 21266 21267 28
17014 21266 21268 28
17015 21266 21269 28
17016 21266 21270 28
17017 21271 21272 28
17018 21271 21273 28
17019 21271 21274 28
17020 21271 21275 28
17021 21276 21277 28
17022 21276 21278 28
17023 21276 21279 28
17024 21276 21280 28
17025 21281 21282 28
17026 21281 21283 28
17027 21281 21284 28
17028 21281 21285 28
17029 21286 21287 28
17030 21286 21288 28
17031 21286 21289 28
17032 21286 21290 28
17033 21291 21292 28
17034 21291 21293 28
17035 21291 21294 28
17036 21291 21295 28
17037 21296 21297 28
17038 21296 21298 28
17039 21296 21299 28
17040 21296 21300 28
17041 21301 21302 28
17042 21301 21303 28
17043 21301 21304 28
17044 21301 21305 28
17045 21306 21307 28
17046 21306 21308 28
17047 21306 21309 28
17048 21306 21310 28
17049 21311 21312 28
17050 21311 21313 28
17051 21311 21314 28
17052 21311 21315 28
17053 21316 21317 28
17054 21316 21318 28
17055 21316 21319 28
17056 21316 21320 28
17057 21321 21322 28
17058 21321 21323 28
17059 21321 21324 28
17060 21321 21325 28
17061 21326 21327 28
17062 21326 21328 28
17063 21326 21329 28
17064 21326 21330 28
17065 21331 21332 28
17066 21331 21333 28
17067 21331 21334 28
17068 21331 21335 28
17069 21336 21337 28
17070 21336 21338 28
17071 21336 21339 28
17072 21336 21340 28
17073 21341 21342 28
17074 21341 21343 28
17075 21341 21344 28
17076 21341 21345 28
17077 21346 21347 28
17078 21346 21348 28
17079 21346 21349 28
17080 21346 21350 28
17081 21351 21352 28
17082 21351 21353 28
17083 21351 21354 28
17084 21351 21355 28
17085 21356 21357 28
17086 21356 21358 28
17087 21356 21359 28
17088 21356 21360 28
17089 21361 21362 28
17090 21361 21363 28
17091 21361 21364 28
17092 21361 21365 28
17093 21366 21367 28
17094 21366 21368 28
17095 21366 21369 28
17096 21366 21370 28
17097 21371 21372 28
17098 21371 21373 28
17099 21371 21374 28
17100 21371 21375 28
17101 21376 21377 28
17102 21376 21378 28
17103 21376 21379 28
17104 21376 21380 28
17105 21381 21382 28
17106 21381 21383 28
17107 21381 21384 28
17108 21381 21385 28
17109 21386 21387 28
17110 21386 21388 28
17111 21386 21389 28
17112 21386 21390 28
17113 21391 21392 28
17114 21391 21393 28
17115 21391 21394 28
17116 21391 21395 28
17117 21396 21397 28
17118 21396 21398 28
17119 21396 21399 28
17120 21396 21400 28
17121 21401 21402 28
17122 21401 21403 28
17123 21401 21404 28
17124 21401 21405 28
17125 21406 21407 28
17126 21406 21408 28
17127 21406 21409 28
17128 21406 21410 28
17129 21411 21412 28
17130 21411 21413 28
17131 21411 21414 28
17132 21411 21415 28
17133 21416 21417 28
17134 21416 21418 28
17135 21416 21419 28
17136 21416 21420 28
17137 21421 21422 28
17138 21421 21423 28
17139 21421 21424 28
17140 21421 21425 28
17141 21426 21427 28
17142 21426 21428 28
17143 21426 21429 28
17144 21426 21430 28
17145 21431 21432 28
17146 21431 21433 28
17147 21431 21434 28
17148 21431 21435 28
17149 21436 21437 28
17150 21436 21438 28
17151 21436 21439 28
17152 21436 21440 28
17153 21441 21442 28
17154 21441 21443 28
17155 21441 21444 28
17156 21441 21445 28
17157 21446 21447 28
17158 21446 21448 28
17159 21446 21449 28
17160 21446 21450 28
17161 21451 21452 28
17162 21451 21453 28
17163 21451 21454 28
17164 21451 21455 28
17165 21456 21457 28
17166 21456 21458 28
17167 21456 21459 28
17168 21456 21460 28
17169 21461 21462 28
17170 21461 21463 28
17171 21461 21464 28
17172 21461 21465 28
17173 21466 21467 28
17174 21466 21468 28
17175 21466 21469 28
17176 21466 21470 28
17177 21471 21472 28
17178 21471 21473 28
17179 21471 21474 28
17180 21471 21475 28
17181 21476 21477 28
17182 21476 21478 28
17183 21476 21479 28
17184 21476 21480 28
17185 21481 21482 28
17186 21481 21483 28
17187 21481 21484 28
17188 21481 21485 28
17189 21486 21487 28
17190 21486 21488 28
17191 21486 21489 28
17192 21486 21490 28
17193 21491 21492 28
17194 21491 21493 28
17195 21491 21494 28
17196 21491 21495 28
17197 21496 21497 28
17198 21496 21498 28
17199 21496 21499 28
17200 21496 21500 28
17201 21501 21502 28
17202 21501 21503 28
17203 21501 21504 28
17204 21501 21505 28
17205 21506 21507 28
17206 21506 21508 28
17207 21506 21509 28
17208 21506 21510 28
17209 21511 21512 28
17210 21511 21513 28
17211 21511 21514 28
17212 21511 21515 28
17213 21516 21517 28
17214 21516 21518 28
17215 21516 21519 28
17216 21516 21520 28
17217 21521 21522 28
17218 21521 21523 28
17219 21521 21524 28
17220 21521 21525 28
17221 21526 21527 28
17222 21526 21528 28
17223 21526 21529 28
17224 21526 21530 28
17225 21531 21532 28
17226 21531 21533 28
17227 21531 21534 28
17228 21531 21535 28
17229 21536 21537 28
17230 21536 21538 28
17231 21536 21539 28
17232 21536 21540 28
17233 21541 21542 28
17234 21541 21543 28
17235 21541 21544 28
17236 21541 21545 28
17237 21546 21547 28
17238 21546 21548 28
17239 21546 21549 28
17240 21546 21550 28
17241 21551 21552 28
17242 21551 21553 28
17243 21551 21554 28
17244 21551 21555 28
17245 21556 21557 28
17246 21556 21558 28
17247 21556 21559 28
17248 21556 21560 28
17249 21561 21562 28
17250 21561 21563 28
17251 21561 21564 28
17252 21561 21565 28
17253 21566 21567 28
17254 21566 21568 28
17255 21566 21569 28
17256 21566 21570 28
17257 21571 21572 28
17258 21571 21573 28
17259 21571 21574 28
17260 21571 21575 28
17261 21576 21577 28
17262 21576 21578 28
17263 21576 21579 28
17264 21576 21580 28
17265 21581 21582 28
17266 21581 21583 28
17267 21581 21584 28
17268 21581 21585 28
17269 21586 21587 28
17270 21586 21588 28
17271 21586 21589 28
17272 21586 21590 28
17273 21591 21592 28
17274 21591 21593 28
17275 21591 21594 28
17276 21591 21595 28
17277 21596 21597 28
17278 21596 21598 28
17279 21596 21599 28
17280 21596 21600 28
17281 21601 21602 28
17282 21601 21603 28
17283 21601 21604 28
17284 21601 21605 28
17285 21606 21607 28
17286 21606 21608 28
17287 21606 21609 28
17288 21606 21610 28
17289 21611 21612 28
17290 21611 21613 28
17291 21611 21614 28
17292 21611 21615 28
17293 21616 21617 28
17294 21616 21618 28
17295 21616 21619 28
17296 21616 21620 28
17297 21621 21622 28
17298 21621 21623 28
17299 21621 21624 28
17300 21621 21625 28
17301 21626 21627 28
17302 21626 21628 28
17303 21626 21629 28
17304 21626 21630 28
17305 21631 21632 28
17306 21631 21633 28
17307 21631 21634 28
17308 21631 21635 28
17309 21636 21637 28
17310 21636 21638 28
17311 21636 21639 28
17312 21636 21640 28
17313 21641 21642 28
17314 21641 21643 28
17315 21641 21644 28
17316 21641 21645 28
17317 21646 21647 28
17318 21646 21648 28
17319 21646 21649 28
17320 21646 21650 28
17321 21651 21652 28
17322 21651 21653 28
17323 21651 21654 28
17324 21651 21655 28
17325 21656 21657 28
17326 21656 21658 28
17327 21656 21659 28
17328 21656 21660 28
17329 21661 21662 28
17330 21661 21663 28
17331 21661 21664 28
17332 21661 21665 28
17333 21666 21667 28
17334 21666 21668 28
17335 21666 21669 28
17336 21666 21670 28
17337 21671 21672 28
17338 21671 21673 28
17339 21671 21674 28
17340 21671 21675 28
17341 21676 21677 28
17342 21676 21678 28
17343 21676 21679 28
17344 21676 21680 28
17345 21681 21682 28
17346 21681 21683 28
17347 21681 21684 28
17348 21681 21685 28
17349 21686 21687 28
17350 21686 21688 28
17351 21686 21689 28
17352 21686 21690 28
17353 21691 21692 28
17354 21691 21693 28
17355 21691 21694 28
17356 21691 21695 28
17357 21696 21697 28
17358 21696 21698 28
17359 21696 21699 28
17360 21696 21700 28
17361 21701 21702 28
17362 21701 21703 28
17363 21701 21704 28
17364 21701 21705 28
17365 21706 21707 28
17366 21706 21708 28
17367 21706 21709 28
17368 21706 21710 28
17369 21711 21712 28
17370 21711 21713 28
17371 21711 21714 28
17372 21711 21715 28
17373 21716 21717 28
17374 21716 21718 28
17375 21716 21719 28
17376 21716 21720 28
17377 21721 21722 28
17378 21721 21723 28
17379 21721 21724 28
17380 21721 21725 28
17381 21726 21727 28
17382 21726 21728 28
17383 21726 21729 28
17384 21726 21730 28
17385 21731 21732 28
17386 21731 21733 28
17387 21731 21734 28
17388 21731 21735 28
17389 21736 21737 28
17390 21736 21738 28
17391 21736 21739 28
17392 21736 21740 28
17393 21741 21742 28
17394 21741 21743 28
17395 21741 21744 28
17396 21741 21745 28
17397 21746 21747 28
17398 21746 21748 28
17399 21746 21749 28
17400 21746 21750 28
17401 21751 21752 28
17402 21751 21753 28
17403 21751 21754 28
17404 21751 21755 28
17405 21756 21757 28
17406 21756 21758 28
17407 21756 21759 28
17408 21756 21760 28
17409 21761 21762 28
17410 21761 21763 28
17411 21761 21764 28
17412 21761 21765 28
17413 21766 21767 28
17414 21766 21768 28
17415 21766 21769 28
17416 21766 21770 28
17417 21771 21772 28
17418 21771 21773 28
17419 21771 21774 28
17420 21771 21775 28
17421 21776 21777 28
17422 21776 21778 28
17423 21776 21779 28
17424 21776 21780 28
17425 21781 21782 28
17426 21781 21783 28
17427 21781 21784 28
17428 21781 21785 28
17429 21786 21787 28
17430 21786 21788 28
17431 21786 21789 28
17432 21786 21790 28
17433 21791 21792 28
17434 21791 21793 28
17435 21791 21794 28
17436 21791 21795 28
17437 21796 21797 28
17438 21796 21798 28
17439 21796 21799 28
17440 21796 21800 28
17441 21801 21802 28
17442 21801 21803 28
17443 21801 21804 28
17444 21801 21805 28
17445 21806 21807 28
17446 21806 21808 28
17447 21806 21809 28
17448 21806 21810 28
17449 21811 21812 28
17450 21811 21813 28
17451 21811 21814 28
17452 21811 21815 28
17453 21816 21817 28
17454 21816 21818 28
17455 21816 21819 28
17456 21816 21820 28
17457 21821 21822 28
17458 21821 21823 28
17459 21821 21824 28
17460 21821 21825 28
17461 21826 21827 28
17462 21826 21828 28
17463 21826 21829 28
17464 21826 21830 28
17465 21831 21832 28
17466 21831 21833 28
17467 21831 21834 28
17468 21831 21835 28
17469 21836 21837 28
17470 21836 21838 28
17471 21836 21839 28
17472 21836 21840 28
17473 21841 21842 28
17474 21841 21843 28
17475 21841 21844 28
17476 21841 21845 28
17477 21846 21847 28
17478 21846 21848 28
17479 21846 21849 28
17480 21846 21850 28
17481 21851 21852 28
17482 21851 21853 28
17483 21851 21854 28
17484 21851 21855 28
17485 21856 21857 28
17486 21856 21858 28
17487 21856 21859 28
17488 21856 21860 28
17489 21861 21862 28
17490 21861 21863 28
17491 21861 21864 28
17492 21861 21865 28
17493 21866 21867 28
17494 21866 21868 28
17495 21866 21869 28
17496 21866 21870 28
17497 21871 21872 28
17498 21871 21873 28
17499 21871 21874 28
17500 21871 21875 28
17501 21876 21877 28
17502 21876 21878 28
17503 21876 21879 28
17504 21876 21880 28
17505 21881 21882 28
17506 21881 21883 28
17507 21881 21884 28
17508 21881 21885 28
17509 21886 21887 28
17510 21886 21888 28
17511 21886 21889 28
17512 21886 21890 28
17513 21891 21892 28
17514 21891 21893 28
17515 21891 21894 28
17516 21891 21895 28
17517 21896 21897 28
17518 21896 21898 28
17519 21896 21899 28
17520 21896 21900 28
17521 21901 21902 28
17522 21901 21903 28
17523 21901 21904 28
17524 21901 21905 28
17525 21906 21907 28
17526 21906 21908 28
17527 21906 21909 28
17528 21906 21910 28
17529 21911 21912 28
17530 21911 21913 28
17531 21911 21914 28
17532 21911 21915 28
17533 21916 21917 28
17534 21916 21918 28
17535 21916 21919 28
17536 21916 21920 28
17537 21921 21922 28
17538 21921 21923 28
17539 21921 21924 28
17540 21921 21925 28
17541 21926 21927 28
17542 21926 21928 28
17543 21926 21929 28
17544 21926 21930 28
17545 21931 21932 28
17546 21931 21933 28
17547 21931 21934 28
17548 21931 21935 28
17549 21936 21937 28
17550 21936 21938 28
17551 21936 21939 28
17552 21936 21940 28
17553 21941 21942 28
17554 21941 21943 28
17555 21941 21944 28
17556 21941 21945 28
17557 21946 21947 28
17558 21946 21948 28
17559 21946 21949 28
17560 21946 21950 28
17561 21951 21952 28
17562 21951 21953 28
17563 21951 21954 28
17564 21951 21955 28
17565 21956 21957 28
17566 21956 21958 28
17567 21956 21959 28
17568 21956 21960 28
17569 21961 21962 28
17570 21961 21963 28
17571 21961 21964 28
17572 21961 21965 28
17573 21966 21967 28
17574 21966 21968 28
17575 21966 21969 28
17576 21966 21970 28
17577 21971 21972 28
17578 21971 21973 28
17579 21971 21974 28
17580 21971 21975 28
17581 21976 21977 28
17582 21976 21978 28
17583 21976 21979 28
17584 21976 21980 28
17585 21981 21982 28
17586 21981 21983 28
17587 21981 21984 28
17588 21981 21985 28
17589 21986 21987 28
17590 21986 21988 28
17591 21986 21989 28
17592 21986 21990 28
17593 21991 21992 28
17594 21991 21993 28
17595 21991 21994 28
17596 21991 21995 28
17597 21996 21997 28
17598 21996 21998 28
17599 21996 21999 28
17600 21996 22000 28
17601 22001 22002 28
17602 22001 22003 28
17603 22001 22004 28
17604 22001 22005 28
17605 22006 22007 28
17606 22006 22008 28
17607 22006 22009 28
17608 22006 22010 28
17609 22011 22012 28
17610 22011 22013 28
17611 22011 22014 28
17612 22011 22015 28
17613 22016 22017 28
17614 22016 22018 28
17615 22016 22019 28
17616 22016 22020 28
17617 22021 22022 28
17618 22021 22023 28
17619 22021 22024 28
17620 22021 22025 28
17621 22026 22027 28
17622 22026 22028 28
17623 22026 22029 28
17624 22026 22030 28
17625 22031 22032 28
17626 22031 22033 28
17627 22031 22034 28
17628 22031 22035 28
17629 22036 22037 28
17630 22036 22038 28
17631 22036 22039 28
17632 22036 22040 28
17633 22041 22042 28
17634 22041 22043 28
17635 22041 22044 28
17636 22041 22045 28
17637 22046 22047 28
17638 22046 22048 28
17639 22046 22049 28
17640 22046 22050 28
17641 22051 22052 28
17642 22051 22053 28
17643 22051 22054 28
17644 22051 22055 28
17645 22056 22057 28
17646 22056 22058 28
17647 22056 22059 28
17648 22056 22060 28
17649 22061 22062 28
17650 22061 22063 28
17651 22061 22064 28
17652 22061 22065 28
17653 22066 22067 28
17654 22066 22068 28
17655 22066 22069 28
17656 22066 22070 28
17657 22071 22072 28
17658 22071 22073 28
17659 22071 22074 28
17660 22071 22075 28
17661 22076 22077 28
17662 22076 22078 28
17663 22076 22079 28
17664 22076 22080 28
17665 22081 22082 28
17666 22081 22083 28
17667 22081 22084 28
17668 22081 22085 28
17669 22086 22087 28
17670 22086 22088 28
17671 22086 22089 28
17672 22086 22090 28
17673 22091 22092 28
17674 22091 22093 28
17675 22091 22094 28
17676 22091 22095 28
17677 22096 22097 28
17678 22096 22098 28
17679 22096 22099 28
17680 22096 22100 28
17681 22101 22102 28
17682 22101 22103 28
17683 22101 22104 28
17684 22101 22105 28
17685 22106 22107 28
17686 22106 22108 28
17687 22106 22109 28
17688 22106 22110 28
17689 22111 22112 28
17690 22111 22113 28
17691 22111 22114 28
17692 22111 22115 28
17693 22116 22117 28
17694 22116 22118 28
17695 22116 22119 28
17696 22116 22120 28
17697 22121 22122 28
17698 22121 22123 28
17699 22121 22124 28
17700 22121 22125 28
17701 22126 22127 28
17702 22126 22128 28
17703 22126 22129 28
17704 22126 22130 28
17705 22131 22132 28
17706 22131 22133 28
17707 22131 22134 28
17708 22131 22135 28
17709 22136 22137 28
17710 22136 22138 28
17711 22136 22139 28
17712 22136 22140 28
17713 22141 22142 28
17714 22141 22143 28
17715 22141 22144 28
17716 22141 22145 28
17717 22146 22147 28
17718 22146 22148 28
17719 22146 22149 28
17720 22146 22150 28
17721 22151 22152 28
17722 22151 22153 28
17723 22151 22154 28
17724 22151 22155 28
17725 22156 22157 28
17726 22156 22158 28
17727 22156 22159 28
17728 22156 22160 28
17729 22161 22162 28
17730 22161 22163 28
17731 22161 22164 28
17732 22161 22165 28
17733 22166 22167 28
17734 22166 22168 28
17735 22166 22169 28
17736 22166 22170 28
17737 22171 22172 28
17738 22171 22173 28
17739 22171 22174 28
17740 22171 22175 28
17741 22176 22177 28
17742 22176 22178 28
17743 22176 22179 28
17744 22176 22180 28
17745 22181 22182 28
17746 22181 22183 28
17747 22181 22184 28
17748 22181 22185 28
17749 22186 22187 28
17750 22186 22188 28
17751 22186 22189 28
17752 22186 22190 28
17753 22191 22192 28
17754 22191 22193 28
17755 22191 22194 28
17756 22191 22195 28
17757 22196 22197 28
17758 22196 22198 28
17759 22196 22199 28
17760 22196 22200 28
17761 22201 22202 28
17762 22201 22203 28
17763 22201 22204 28
17764 22201 22205 28
17765 22206 22207 28
17766 22206 22208 28
17767 22206 22209 28
17768 22206 22210 28
17769 22211 22212 28
17770 22211 22213 28
17771 22211 22214 28
17772 22211 22215 28
17773 22216 22217 28
17774 22216 22218 28
17775 22216 22219 28
17776 22216 22220 28
17777 22221 22222 28
17778 22221 22223 28
17779 22221 22224 28
17780 22221 22225 28
17781 22226 22227 28
17782 22226 22228 28
17783 22226 22229 28
17784 22226 22230 28
17785 22231 22232 28
17786 22231 22233 28
17787 22231 22234 28
17788 22231 22235 28
17789 22236 22237 28
17790 22236 22238 28
17791 22236 22239 28
17792 22236 22240 28
17793 22241 22242 28
17794 22241 22243 28
17795 22241 22244 28
17796 22241 22245 28
17797 22246 22247 28
17798 22246 22248 28
17799 22246 22249 28
17800 22246 22250 28
17801 22251 22252 28
17802 22251 22253 28
17803 22251 22254 28
17804 22251 22255 28
17805 22256 22257 28
17806 22256 22258 28
17807 22256 22259 28
17808 22256 22260 28
17809 22261 22262 28
17810 22261 22263 28
17811 22261 22264 28
17812 22261 22265 28
17813 22266 22267 28
17814 22266 22268 28
17815 22266 22269 28
17816 22266 22270 28
17817 22271 22272 28
17818 22271 22273 28
17819 22271 22274 28
17820 22271 22275 28
17821 22276 22277 28
17822 22276 22278 28
17823 22276 22279 28
17824 22276 22280 28
17825 22281 22282 28
17826 22281 22283 28
17827 22281 22284 28
17828 22281 22285 28
17829 22286 22287 28
17830 22286 22288 28
17831 22286 22289 28
17832 22286 22290 28
17833 22291 22292 28
17834 22291 22293 28
17835 22291 22294 28
17836 22291 22295 28
17837 22296 22297 28
17838 22296 22298 28
17839 22296 22299 28
17840 22296 22300 28
17841 22301 22302 28
17842 22301 22303 28
17843 22301 22304 28
17844 22301 22305 28
17845 22306 22307 28
17846 22306 22308 28
17847 22306 22309 28
17848 22306 22310 28
17849 22311 22312 28
17850 22311 22313 28
17851 22311 22314 28
17852 22311 22315 28
17853 22316 22317 28
17854 22316 22318 28
17855 22316 22319 28
17856 22316 22320 28
17857 22321 22322 28
17858 22321 22323 28
17859 22321 22324 28
17860 22321 22325 28
17861 22326 22327 28
17862 22326 22328 28
17863 22326 22329 28
17864 22326 22330 28
17865 22331 22332 28
17866 22331 22333 28
17867 22331 22334 28
17868 22331 22335 28
17869 22336 22337 28
17870 22336 22338 28
17871 22336 22339 28
17872 22336 22340 28
17873 22341 22342 28
17874 22341 22343 28
17875 22341 22344 28
17876 22341 22345 28
17877 22346 22347 28
17878 22346 22348 28
17879 22346 22349 28
17880 22346 22350 28
17881 22351 22352 28
17882 22351 22353 28
17883 22351 22354 28
17884 22351 22355 28
17885 22356 22357 28
17886 22356 22358 28
17887 22356 22359 28
17888 22356 22360 28
17889 22361 22362 28
17890 22361 22363 28
17891 22361 22364 28
17892 22361 22365 28
17893 22366 22367 28
17894 22366 22368 28
17895 22366 22369 28
17896 22366 22370 28
17897 22371 22372 28
17898 22371 22373 28
17899 22371 22374 28
17900 22371 22375 28
17901 22376 22377 28
17902 22376 22378 28
17903 22376 22379 28
17904 22376 22380 28
17905 22381 22382 28
17906 22381 22383 28
17907 22381 22384 28
17908 22381 22385 28
17909 22386 22387 28
17910 22386 22388 28
17911 22386 22389 28
17912 22386 22390 28
17913 22391 22392 28
17914 22391 22393 28
17915 22391 22394 28
17916 22391 22395 28
17917 22396 22397 28
17918 22396 22398 28
17919 22396 22399 28
17920 22396 22400 28
17921 22401 22402 28
17922 22401 22403 28
17923 22401 22404 28
17924 22401 22405 28
17925 22406 22407 28
17926 22406 22408 28
17927 22406 22409 28
17928 22406 22410 28
17929 22411 22412 28
17930 22411 22413 28
17931 22411 22414 28
17932 22411 22415 28
17933 22416 22417 28
17934 22416 22418 28
17935 22416 22419 28
17936 22416 22420 28
17937 22421 22422 28
17938 22421 22423 28
17939 22421 22424 28
17940 22421 22425 28
17941 22426 22427 28
17942 22426 22428 28
17943 22426 22429 28
17944 22426 22430 28
17945 22431 22432 28
17946 22431 22433 28
17947 22431 22434 28
17948 22431 22435 28
17949 22436 22437 28
17950 22436 22438 28
17951 22436 22439 28
17952 22436 22440 28
17953 22441 22442 28
17954 22441 22443 28
17955 22441 22444 28
17956 22441 22445 28
17957 22446 22447 28
17958 22446 22448 28
17959 22446 22449 28
17960 22446 22450 28
17961 22451 22452 28
17962 22451 22453 28
17963 22451 22454 28
17964 22451 22455 28
17965 22456 22457 28
17966 22456 22458 28
17967 22456 22459 28
17968 22456 22460 28
17969 22461 22462 28
17970 22461 22463 28
17971 22461 22464 28
17972 22461 22465 28
17973 22466 22467 28
17974 22466 22468 28
17975 22466 22469 28
17976 22466 22470 28
17977 22471 22472 28
17978 22471 22473 28
17979 22471 22474 28
17980 22471 22475 28
17981 22476 22477 28
17982 22476 22478 28
17983 22476 22479 28
17984 22476 22480 28
17985 22481 22482 28
17986 22481 22483 28
17987 22481 22484 28
17988 22481 22485 28
17989 22486 22487 28
17990 22486 22488 28
17991 22486 22489 28
17992 22486 22490 28
17993 22491 22492 28
17994 22491 22493 28
17995 22491 22494 28
17996 22491 22495 28
17997 22496 22497 28
17998 22496 22498 28
17999 22496 22499 28
18000 22496 22500 28
18001 22501 22502 28
18002 22501 22503 28
18003 22501 22504 28
18004 22501 22505 28
18005 22506 22507 28
18006 22506 22508 28
18007 22506 22509 28
18008 22506 22510 28
18009 22511 22512 28
18010 22511 22513 28
18011 22511 22514 28
18012 22511 22515 28
18013 22516 22517 28
18014 22516 22518 28
18015 22516 22519 28
18016 22516 22520 28
18017 22521 22522 28
18018 22521 22523 28
18019 22521 22524 28
18020 22521 22525 28
18021 22526 22527 28
18022 22526 22528 28
18023 22526 22529 28
18024 22526 22530 28
18025 22531 22532 28
18026 22531 22533 28
18027 22531 22534 28
18028 22531 22535 28
18029 22536 22537 28
18030 22536 22538 28
18031 22536 22539 28
18032 22536 22540 28
18033 22541 22542 28
18034 22541 22543 28
18035 22541 22544 28
18036 22541 22545 28
18037 22546 22547 28
18038 22546 22548 28
18039 22546 22549 28
18040 22546 22550 28
18041 22551 22552 28
18042 22551 22553 28
18043 22551 22554 28
18044 22551 22555 28
18045 22556 22557 28
18046 22556 22558 28
18047 22556 22559 28
18048 22556 22560 28
18049 22561 22562 28
18050 22561 22563 28
18051 22561 22564 28
18052 22561 22565 28
18053 22566 22567 28
18054 22566 22568 28
18055 22566 22569 28
18056 22566 22570 28
18057 22571 22572 28
18058 22571 22573 28
18059 22571 22574 28
18060 22571 22575 28
18061 22576 22577 28
18062 22576 22578 28
18063 22576 22579 28
18064 22576 22580 28
18065 22581 22582 28
18066 22581 22583 28
18067 22581 22584 28
18068 22581 22585 28
18069 22586 22587 28
18070 22586 22588 28
18071 22586 22589 28
18072 22586 22590 28
18073 22591 22592 28
18074 22591 22593 28
18075 22591 22594 28
18076 22591 22595 28
18077 22596 22597 28
18078 22596 22598 28
18079 22596 22599 28
18080 22596 22600 28
18081 22601 22602 28
18082 22601 22603 28
18083 22601 22604 28
18084 22601 22605 28
18085 22606 22607 28
18086 22606 22608 28
18087 22606 22609 28
18088 22606 22610 28
18089 22611 22612 28
18090 22611 22613 28
18091 22611 22614 28
18092 22611 22615 28
18093 22616 22617 28
18094 22616 22618 28
18095 22616 22619 28
18096 22616 22620 28
18097 22621 22622 28
18098 22621 22623 28
18099 22621 22624 28
18100 22621 22625 28
18101 22626 22627 28
18102 22626 22628 28
18103 22626 22629 28
18104 22626 22630 28
18105 22631 22632 28
18106 22631 22633 28
18107 22631 22634 28
18108 22631 22635 28
18109 22636 22637 28
18110 22636 22638 28
18111 22636 22639 28
18112 22636 22640 28
18113 22641 22642 28
18114 22641 22643 28
18115 22641 22644 28
18116 22641 22645 28
18117 22646 22647 28
18118 22646 22648 28
18119 22646 22649 28
18120 22646 22650 28
18121 22651 22652 28
18122 22651 22653 28
18123 22651 22654 28
18124 22651 22655 28
18125 22656 22657 28
18126 22656 22658 28
18127 22656 22659 28
18128 22656 22660 28
18129 22661 22662 28
18130 22661 22663 28
18131 22661 22664 28
18132 22661 22665 28
18133 22666 22667 28
18134 22666 22668 28
18135 22666 22669 28
18136 22666 22670 28
18137 22671 22672 28
18138 22671 22673 28
18139 22671 22674 28
18140 22671 22675 28
18141 22676 22677 28
18142 22676 22678 28
18143 22676 22679 28
18144 22676 22680 28
18145 22681 22682 28
18146 22681 22683 28
18147 22681 22684 28
18148 22681 22685 28
18149 22686 22687 28
18150 22686 22688 28
18151 22686 22689 28
18152 22686 22690 28
18153 22691 22692 28
18154 22691 22693 28
18155 22691 22694 28
18156 22691 22695 28
18157 22696 22697 28
18158 22696 22698 28
18159 22696 22699 28
18160 22696 22700 28
18161 22701 22702 28
18162 22701 22703 28
18163 22701 22704 28
18164 22701 22705 28
18165 22706 22707 28
18166 22706 22708 28
18167 22706 22709 28
18168 22706 22710 28
18169 22711 22712 28
18170 22711 22713 28
18171 22711 22714 28
18172 22711 22715 28
18173 22716 22717 28
18174 22716 22718 28
18175 22716 22719 28
18176 22716 22720 28
18177 22721 22722 28
18178 22721 22723 28
18179 22721 22724 28
18180 22721 22725 28
18181 22726 22727 28
18182 22726 22728 28
18183 22726 22729 28
18184 22726 22730 28
18185 22731 22732 28
18186 22731 22733 28
18187 22731 22734 28
18188 22731 22735 28
18189 22736 22737 28
18190 22736 22738 28
18191 22736 22739 28
18192 22736 22740 28
18193 22741 22742 28
18194 22741 22743 28
18195 22741 22744 28
18196 22741 22745 28
18197 22746 22747 28
18198 22746 22748 28
18199 22746 22749 28
18200 22746 22750 28
18201 22751 22752 28
18202 22751 22753 28
18203 22751 22754 28
18204 22751 22755 28
18205 22756 22757 28
18206 22756 22758 28
18207 22756 22759 28
18208 22756 22760 28
18209 22761 22762 28
18210 22761 22763 28
18211 22761 22764 28
18212 22761 22765 28
18213 22766 22767 28
18214 22766 22768 28
18215 22766 22769 28
18216 22766 22770 28
18217 22771 22772 28
18218 22771 22773 28
18219 22771 22774 28
18220 22771 22775 28
18221 22776 22777 28
18222 22776 22778 28
18223 22776 22779 28
18224 22776 22780 28
18225 22781 22782 28
18226 22781 22783 28
18227 22781 22784 28
18228 22781 22785 28
18229 22786 22787 28
18230 22786 22788 28
18231 22786 22789 28
18232 22786 22790 28
18233 22791 22792 28
18234 22791 22793 28
18235 22791 22794 28
18236 22791 22795 28
18237 22796 22797 28
18238 22796 22798 28
18239 22796 22799 28
18240 22796 22800 28
18241 22801 22802 28
18242 22801 22803 28
18243 22801 22804 28
18244 22801 22805 28
18245 22806 22807 28
18246 22806 22808 28
18247 22806 22809 28
18248 22806 22810 28
18249 22811 22812 28
18250 22811 22813 28
18251 22811 22814 28
18252 22811 22815 28
18253 22816 22817 28
18254 22816 22818 28
18255 22816 22819 28
18256 22816 22820 28
18257 22821 22822 28
18258 22821 22823 28
18259 22821 22824 28
18260 22821 22825 28
18261 22826 22827 28
18262 22826 22828 28
18263 22826 22829 28
18264 22826 22830 28
18265 22831 22832 28
18266 22831 22833 28
18267 22831 22834 28
18268 22831 22835 28
18269 22836 22837 28
18270 22836 22838 28
18271 22836 22839 28
18272 22836 22840 28
18273 22841 22842 28
18274 22841 22843 28
18275 22841 22844 28
18276 22841 22845 28
18277 22846 22847 28
18278 22846 22848 28
18279 22846 22849 28
18280 22846 22850 28
18281 22851 22852 28
18282 22851 22853 28
18283 22851 22854 28
18284 22851 22855 28
18285 22856 22857 28
18286 22856 22858 28
18287 22856 22859 28
18288 22856 22860 28
18289 22861 22862 28
18290 22861 22863 28
18291 22861 22864 28
18292 22861 22865 28
18293 22866 22867 28
18294 22866 22868 28
18295 22866 22869 28
18296 22866 22870 28
18297 22871 22872 28
18298 22871 22873 28
18299 22871 22874 28
18300 22871 22875 28
18301 22876 22877 28
18302 22876 22878 28
18303 22876 22879 28
18304 22876 22880 28
18305 22881 22882 28
18306 22881 22883 28
18307 22881 22884 28
18308 22881 22885 28
18309 22886 22887 28
18310 22886 22888 28
18311 22886 22889 28
18312 22886 22890 28
18313 22891 22892 28
18314 22891 22893 28
18315 22891 22894 28
18316 22891 22895 28
18317 22896 22897 28
18318 22896 22898 28
18319 22896 22899 28
18320 22896 22900 28
18321 22901 22902 28
18322 22901 22903 28
18323 22901 22904 28
18324 22901 22905 28
18325 22906 22907 28
18326 22906 22908 28
18327 22906 22909 28
18328 22906 22910 28
18329 22911 22912 28
18330 22911 22913 28
18331 22911 22914 28
18332 22911 22915 28
18333 22916 22917 28
18334 22916 22918 28
18335 22916 22919 28
18336 22916 22920 28
18337 22921 22922 28
18338 22921 22923 28
18339 22921 22924 28
18340 22921 22925 28
18341 22926 22927 28
18342 22926 22928 28
18343 22926 22929 28
18344 22926 22930 28
18345 22931 22932 28
18346 22931 22933 28
18347 22931 22934 28
18348 22931 22935 28
18349 22936 22937 28
18350 22936 22938 28
18351 22936 22939 28
18352 22936 22940 28
18353 22941 22942 28
18354 22941 22943 28
18355 22941 22944 28
18356 22941 22945 28
18357 22946 22947 28
18358 22946 22948 28
18359 22946 22949 28
18360 22946 22950 28
18361 22951 22952 28
18362 22951 22953 28
18363 22951 22954 28
18364 22951 22955 28
18365 22956 22957 28
18366 22956 22958 28
18367 22956 22959 28
18368 22956 22960 28
18369 22961 22962 28
18370 22961 22963 28
18371 22961 22964 28
18372 22961 22965 28
18373 22966 22967 28
18374 22966 22968 28
18375 22966 22969 28
18376 22966 22970 28
18377 22971 22972 28
18378 22971 22973 28
18379 22971 22974 28
18380 22971 22975 28
18381 22976 22977 28
18382 22976 22978 28
18383 22976 22979 28
18384 22976 22980 28
18385 22981 22982 28
18386 22981 22983 28
18387 22981 22984 28
18388 22981 22985 28
18389 22986 22987 28
18390 22986 22988 28
18391 22986 22989 28
18392 22986 22990 28
18393 22991 22992 28
18394 22991 22993 28
18395 22991 22994 28
18396 22991 22995 28
18397 22996 22997 28
18398 22996 22998 28
18399 22996 22999 28
18400 22996 23000 28
18401 23001 23002 28
18402 23001 23003 28
18403 23001 23004 28
18404 23001 23005 28
18405 23006 23007 28
18406 23006 23008 28
18407 23006 23009 28
18408 23006 23010 28
18409 23011 23012 28
18410 23011 23013 28
18411 23011 23014 28
18412 23011 23015 28
18413 23016 23017 28
18414 23016 23018 28
18415 23016 23019 28
18416 23016 23020 28
18417 23021 23022 28
18418 23021 23023 28
18419 23021 23024 28
18420 23021 23025 28
18421 23026 23027 28
18422 23026 23028 28
18423 23026 23029 28
18424 23026 23030 28
18425 23031 23032 28
18426 23031 23033 28
18427 23031 23034 28
18428 23031 23035 28
18429 23036 23037 28
18430 23036 23038 28
18431 23036 23039 28
18432 23036 23040 28
18433 23041 23042 28
18434 23041 23043 28
18435 23041 23044 28
18436 23041 23045 28
18437 23046 23047 28
18438 23046 23048 28
18439 23046 23049 28
18440 23046 23050 28
18441 23051 23052 28
18442 23051 23053 28
18443 23051 23054 28
18444 23051 23055 28
18445 23056 23057 28
18446 23056 23058 28
18447 23056 23059 28
18448 23056 23060 28
18449 23061 23062 28
18450 23061 23063 28
18451 23061 23064 28
18452 23061 23065 28
18453 23066 23067 28
18454 23066 23068 28
18455 23066 23069 28
18456 23066 23070 28
18457 23071 23072 28
18458 23071 23073 28
18459 23071 23074 28
18460 23071 23075 28
18461 23076 23077 28
18462 23076 23078 28
18463 23076 23079 28
18464 23076 23080 28
18465 23081 23082 28
18466 23081 23083 28
18467 23081 23084 28
18468 23081 23085 28
18469 23086 23087 28
18470 23086 23088 28
18471 23086 23089 28
18472 23086 23090 28
18473 23091 23092 28
18474 23091 23093 28
18475 23091 23094 28
18476 23091 23095 28
18477 23096 23097 28
18478 23096 23098 28
18479 23096 23099 28
18480 23096 23100 28
18481 23101 23102 28
18482 23101 23103 28
18483 23101 23104 28
18484 23101 23105 28
18485 23106 23107 28
18486 23106 23108 28
18487 23106 23109 28
18488 23106 23110 28
18489 23111 23112 28
18490 23111 23113 28
18491 23111 23114 28
18492 23111 23115 28
18493 23116 23117 28
18494 23116 23118 28
18495 23116 23119 28
18496 23116 23120 28
18497 23121 23122 28
18498 23121 23123 28
18499 23121 23124 28
18500 23121 23125 28
18501 23126 23127 28
18502 23126 23128 28
18503 23126 23129 28
18504 23126 23130 28
18505 23131 23132 28
18506 23131 23133 28
18507 23131 23134 28
18508 23131 23135 28
18509 23136 23137 28
18510 23136 23138 28
18511 23136 23139 28
18512 23136 23140 28
18513 23141 23142 28
18514 23141 23143 28
18515 23141 23144 28
18516 23141 23145 28
18517 23146 23147 28
18518 23146 23148 28
18519 23146 23149 28
18520 23146 23150 28
18521 23151 23152 28
18522 23151 23153 28
18523 23151 23154 28
18524 23151 23155 28
18525 23156 23157 28
18526 23156 23158 28
18527 23156 23159 28
18528 23156 23160 28
18529 23161 23162 28
18530 23161 23163 28
18531 23161 23164 28
18532 23161 23165 28
18533 23166 23167 28
18534 23166 23168 28
18535 23166 23169 28
18536 23166 23170 28
18537 23171 23172 28
18538 23171 23173 28
18539 23171 23174 28
18540 23171 23175 28
18541 23176 23177 28
18542 23176 23178 28
18543 23176 23179 28
18544 23176 23180 28
18545 23181 23182 28
18546 23181 23183 28
18547 23181 23184 28
18548 23181 23185 28
18549 23186 23187 28
18550 23186 23188 28
18551 23186 23189 28
18552 23186 23190 28
18553 23191 23192 28
18554 23191 23193 28
18555 23191 23194 28
18556 23191 23195 28
18557 23196 23197 28
18558 23196 23198 28
18559 23196 23199 28
18560 23196 23200 28
18561 23201 23202 28
18562 23201 23203 28
18563 23201 23204 28
18564 23201 23205 28
18565 23206 23207 28
18566 23206 23208 28
18567 23206 23209 28
18568 23206 23210 28
18569 23211 23212 28
18570 23211 23213 28
18571 23211 23214 28
18572 23211 23215 28
18573 23216 23217 28
18574 23216 23218 28
18575 23216 23219 28
18576 23216 23220 28
18577 23221 23222 28
18578 23221 23223 28
18579 23221 23224 28
18580 23221 23225 28
18581 23226 23227 28
18582 23226 23228 28
18583 23226 23229 28
18584 23226 23230 28
18585 23231 23232 28
18586 23231 23233 28
18587 23231 23234 28
18588 23231 23235 28
18589 23236 23237 28
18590 23236 23238 28
18591 23236 23239 28
18592 23236 23240 28
18593 23241 23242 28
18594 23241 23243 28
18595 23241 23244 28
18596 23241 23245 28
18597 23246 23247 28
18598 23246 23248 28
18599 23246 23249 28
18600 23246 23250 28
18601 23251 23252 28
18602 23251 23253 28
18603 23251 23254 28
18604 23251 23255 28
18605 23256 23257 28
18606 23256 23258 28
18607 23256 23259 28
18608 23256 23260 28
18609 23261 23262 28
18610 23261 23263 28
18611 23261 23264 28
18612 23261 23265 28
18613 23266 23267 28
18614 23266 23268 28
18615 23266 23269 28
18616 23266 23270 28
18617 23271 23272 28
18618 23271 23273 28
18619 23271 23274 28
18620 23271 23275 28
18621 23276 23277 28
18622 23276 23278 28
18623 23276 23279 28
18624 23276 23280 28
18625 23281 23282 28
18626 23281 23283 28
18627 23281 23284 28
18628 23281 23285 28
18629 23286 23287 28
18630 23286 23288 28
18631 23286 23289 28
18632 23286 23290 28
18633 23291 23292 28
18634 23291 23293 28
18635 23291 23294 28
18636 23291 23295 28
18637 23296 23297 28
18638 23296 23298 28
18639 23296 23299 28
18640 23296 23300 28
18641 23301 23302 28
18642 23301 23303 28
18643 23301 23304 28
18644 23301 23305 28
18645 23306 23307 28
18646 23306 23308 28
18647 23306 23309 28
18648 23306 23310 28
18649 23311 23312 28
18650 23311 23313 28
18651 23311 23314 28
18652 23311 23315 28
18653 23316 23317 28
18654 23316 23318 28
18655 23316 23319 28
18656 23316 23320 28
18657 23321 23322 28
18658 23321 23323 28
18659 23321 23324 28
18660 23321 23325 28
18661 23326 23327 28
18662 23326 23328 28
18663 23326 23329 28
18664 23326 23330 28
18665 23331 23332 28
18666 23331 23333 28
18667 23331 23334 28
18668 23331 23335 28
18669 23336 23337 28
18670 23336 23338 28
18671 23336 23339 28
18672 23336 23340 28
18673 23341 23342 28
18674 23341 23343 28
18675 23341 23344 28
18676 23341 23345 28
18677 23346 23347 28
18678 23346 23348 28
18679 23346 23349 28
18680 23346 23350 28
18681 23351 23352 28
18682 23351 23353 28
18683 23351 23354 28
18684 23351 23355 28
18685 23356 23357 28
18686 23356 23358 28
18687 23356 23359 28
18688 23356 23360 28
18689 23361 23362 28
18690 23361 23363 28
18691 23361 23364 28
18692 23361 23365 28
18693 23366 23367 28
18694 23366 23368 28
18695 23366 23369 28
18696 23366 23370 28
18697 23371 23372 28
18698 23371 23373 28
18699 23371 23374 28
18700 23371 23375 28
18701 23376 23377 28
18702 23376 23378 28
18703 23376 23379 28
18704 23376 23380 28
18705 23381 23382 28
18706 23381 23383 28
18707 23381 23384 28
18708 23381 23385 28
18709 23386 23387 28
18710 23386 23388 28
18711 23386 23389 28
18712 23386 23390 28
18713 23391 23392 28
18714 23391 23393 28
18715 23391 23394 28
18716 23391 23395 28
18717 23396 23397 28
18718 23396 23398 28
18719 23396 23399 28
18720 23396 23400 28
18721 23401 23402 28
18722 23401 23403 28
18723 23401 23404 28
18724 23401 23405 28
18725 23406 23407 28
18726 23406 23408 28
18727 23406 23409 28
18728 23406 23410 28
18729 23411 23412 28
18730 23411 23413 28
18731 23411 23414 28
18732 23411 23415 28
18733 23416 23417 28
18734 23416 23418 28
18735 23416 23419 28
18736 23416 23420 28
18737 23421 23422 28
18738 23421 23423 28
18739 23421 23424 28
18740 23421 23425 28
18741 23426 23427 28
18742 23426 23428 28
18743 23426 23429 28
18744 23426 23430 28
18745 23431 23432 28
18746 23431 23433 28
18747 23431 23434 28
18748 23431 23435 28
18749 23436 23437 28
18750 23436 23438 28
18751 23436 23439 28
18752 23436 23440 28
18753 23441 23442 28
18754 23441 23443 28
18755 23441 23444 28
18756 23441 23445 28
18757 23446 23447 28
18758 23446 23448 28
18759 23446 23449 28
18760 23446 23450 28
18761 23451 23452 28
18762 23451 23453 28
18763 23451 23454 28
18764 23451 23455 28
18765 23456 23457 28
18766 23456 23458 28
18767 23456 23459 28
18768 23456 23460 28
18769 23461 23462 28
18770 23461 23463 28
18771 23461 23464 28
18772 23461 23465 28
18773 23466 23467 28
18774 23466 23468 28
18775 23466 23469 28
18776 23466 23470 28
18777 23471 23472 28
18778 23471 23473 28
18779 23471 23474 28
18780 23471 23475 28
18781 23476 23477 28
18782 23476 23478 28
18783 23476 23479 28
18784 23476 23480 28
18785 23481 23482 28
18786 23481 23483 28
18787 23481 23484 28
18788 23481 23485 28
18789 23486 23487 28
18790 23486 23488 28
18791 23486 23489 28
18792 23486 23490 28
18793 23491 23492 28
18794 23491 23493 28
18795 23491 23494 28
18796 23491 23495 28
18797 23496 23497 28
18798 23496 23498 28
18799 23496 23499 28
18800 23496 23500 28
18801 23501 23502 28
18802 23501 23503 28
18803 23501 23504 28
18804 23501 23505 28
18805 23506 23507 28
18806 23506 23508 28
18807 23506 23509 28
18808 23506 23510 28
18809 23511 23512 28
18810 23511 23513 28
18811 23511 23514 28
18812 23511 23515 28
18813 23516 23517 28
18814 23516 23518 28
18815 23516 23519 28
18816 23516 23520 28
18817 23521 23522 28
18818 23521 23523 28
18819 23521 23524 28
18820 23521 23525 28
18821 23526 23527 28
18822 23526 23528 28
18823 23526 23529 28
18824 23526 23530 28
18825 23531 23532 28
18826 23531 23533 28
18827 23531 23534 28
18828 23531 23535 28
18829 23536 23537 28
18830 23536 23538 28
18831 23536 23539 28
18832 23536 23540 28
18833 23541 23542 28
18834 23541 23543 28
18835 23541 23544 28
18836 23541 23545 28
18837 23546 23547 28
18838 23546 23548 28
18839 23546 23549 28
18840 23546 23550 28
18841 23551 23552 28
18842 23551 23553 28
18843 23551 23554 28
18844 23551 23555 28
18845 23556 23557 28
18846 23556 23558 28
18847 23556 23559 28
18848 23556 23560 28
18849 23561 23562 28
18850 23561 23563 28
18851 23561 23564 28
18852 23561 23565 28
18853 23566 23567 28
18854 23566 23568 28
18855 23566 23569 28
18856 23566 23570 28
18857 23571 23572 28
18858 23571 23573 28
18859 23571 23574 28
18860 23571 23575 28
18861 23576 23577 28
18862 23576 23578 28
18863 23576 23579 28
18864 23576 23580 28
18865 23581 23582 28
18866 23581 23583 28
18867 23581 23584 28
18868 23581 23585 28
18869 23586 23587 28
18870 23586 23588 28
18871 23586 23589 28
18872 23586 23590 28
18873 23591 23592 28
18874 23591 23593 28
18875 23591 23594 28
18876 23591 23595 28
18877 23596 23597 28
18878 23596 23598 28
18879 23596 23599 28
18880 23596 23600 28
18881 23601 23602 28
18882 23601 23603 28
18883 23601 23604 28
18884 23601 23605 28
18885 23606 23607 28
18886 23606 23608 28
18887 23606 23609 28
18888 23606 23610 28
18889 23611 23612 28
18890 23611 23613 28
18891 23611 23614 28
18892 23611 23615 28
18893 23616 23617 28
18894 23616 23618 28
18895 23616 23619 28
18896 23616 23620 28
18897 23621 23622 28
18898 23621 23623 28
18899 23621 23624 28
18900 23621 23625 28
18901 23626 23627 28
18902 23626 23628 28
18903 23626 23629 28
18904 23626 23630 28
18905 23631 23632 28
18906 23631 23633 28
18907 23631 23634 28
18908 23631 23635 28
18909 23636 23637 28
18910 23636 23638 28
18911 23636 23639 28
18912 23636 23640 28
18913 23641 23642 28
18914 23641 23643 28
18915 23641 23644 28
18916 23641 23645 28
18917 23646 23647 28
18918 23646 23648 28
18919 23646 23649 28
18920 23646 23650 28
18921 23651 23652 28
18922 23651 23653 28
18923 23651 23654 28
18924 23651 23655 28
18925 23656 23657 28
18926 23656 23658 28
18927 23656 23659 28
18928 23656 23660 28
18929 23661 23662 28
18930 23661 23663 28
18931 23661 23664 28
18932 23661 23665 28
18933 23666 23667 28
18934 23666 23668 28
18935 23666 23669 28
18936 23666 23670 28
18937 23671 23672 28
18938 23671 23673 28
18939 23671 23674 28
18940 23671 23675 28
18941 23676 23677 28
18942 23676 23678 28
18943 23676 23679 28
18944 23676 23680 28
18945 23681 23682 28
18946 23681 23683 28
18947 23681 23684 28
18948 23681 23685 28
18949 23686 23687 28
18950 23686 23688 28
18951 23686 23689 28
18952 23686 23690 28
18953 23691 23692 28
18954 23691 23693 28
18955 23691 23694 28
18956 23691 23695 28
18957 23696 23697 28
18958 23696 23698 28
18959 23696 23699 28
18960 23696 23700 28
18961 23701 23702 28
18962 23701 23703 28
18963 23701 23704 28
18964 23701 23705 28
18965 23706 23707 28
18966 23706 23708 28
18967 23706 23709 28
18968 23706 23710 28
18969 23711 23712 28
18970 23711 23713 28
18971 23711 23714 28
18972 23711 23715 28
18973 23716 23717 28
18974 23716 23718 28
18975 23716 23719 28
18976 23716 23720 28
18977 23721 23722 28
18978 23721 23723 28
18979 23721 23724 28
18980 23721 23725 28
18981 23726 23727 28
18982 23726 23728 28
18983 23726 23729 28
18984 23726 23730 28
18985 23731 23732 28
18986 23731 23733 28
18987 23731 23734 28
18988 23731 23735 28
18989 23736 23737 28
18990 23736 23738 28
18991 23736 23739 28
18992 23736 23740 28
18993 23741 23742 28
18994 23741 23743 28
18995 23741 23744 28
18996 23741 23745 28
18997 23746 23747 28
18998 23746 23748 28
18999 23746 23749 28
19000 23746 23750 28
19001 23751 23752 28
19002 23751 23753 28
19003 23751 23754 28
19004 23751 23755 28
19005 23756 23757 28
19006 23756 23758 28
19007 23756 23759 28
19008 23756 23760 28
19009 23761 23762 28
19010 23761 23763 28
19011 23761 23764 28
19012 23761 23765 28
19013 23766 23767 28
19014 23766 23768 28
19015 23766 23769 28
19016 23766 23770 28
19017 23771 23772 28
19018 23771 23773 28
19019 23771 23774 28
19020 23771 23775 28
19021 23776 23777 28
19022 23776 23778 28
19023 23776 23779 28
19024 23776 23780 28
19025 23781 23782 28
19026 23781 23783 28
19027 23781 23784 28
19028 23781 23785 28
19029 23786 23787 28
19030 23786 23788 28
19031 23786 23789 28
19032 23786 23790 28
19033 23791 23792 28
19034 23791 23793 28
19035 23791 23794 28
19036 23791 23795 28
19037 23796 23797 28
19038 23796 23798 28
19039 23796 23799 28
19040 23796 23800 28
19041 23801 23802 28
19042 23801 23803 28
19043 23801 23804 28
19044 23801 23805 28
19045 23806 23807 28
19046 23806 23808 28
19047 23806 23809 28
19048 23806 23810 28
19049 23811 23812 28
19050 23811 23813 28
19051 23811 23814 28
19052 23811 23815 28
19053 23816 23817 28
19054 23816 23818 28
19055 23816 23819 28
19056 23816 23820 28
19057 23821 23822 28
19058 23821 23823 28
19059 23821 23824 28
19060 23821 23825 28
19061 23826 23827 28
19062 23826 23828 28
19063 23826 23829 28
19064 23826 23830 28
19065 23831 23832 28
19066 23831 23833 28
19067 23831 23834 28
19068 23831 23835 28
19069 23836 23837 28
19070 23836 23838 28
19071 23836 23839 28
19072 23836 23840 28
19073 23841 23842 28
19074 23841 23843 28
19075 23841 23844 28
19076 23841 23845 28
19077 23846 23847 28
19078 23846 23848 28
19079 23846 23849 28
19080 23846 23850 28
19081 23851 23852 28
19082 23851 23853 28
19083 23851 23854 28
19084 23851 23855 28
19085 23856 23857 28
19086 23856 23858 28
19087 23856 23859 28
19088 23856 23860 28
19089 23861 23862 28
19090 23861 23863 28
19091 23861 23864 28
19092 23861 23865 28
19093 23866 23867 28
19094 23866 23868 28
19095 23866 23869 28
19096 23866 23870 28
19097 23871 23872 28
19098 23871 23873 28
19099 23871 23874 28
19100 23871 23875 28
19101 23876 23877 28
19102 23876 23878 28
19103 23876 23879 28
19104 23876 23880 28
19105 23881 23882 28
19106 23881 23883 28
19107 23881 23884 28
19108 23881 23885 28
19109 23886 23887 28
19110 23886 23888 28
19111 23886 23889 28
19112 23886 23890 28
19113 23891 23892 28
19114 23891 23893 28
19115 23891 23894 28
19116 23891 23895 28
19117 23896 23897 28
19118 23896 23898 28
19119 23896 23899 28
19120 23896 23900 28
19121 23901 23902 28
19122 23901 23903 28
19123 23901 23904 28
19124 23901 23905 28
19125 23906 23907 28
19126 23906 23908 28
19127 23906 23909 28
19128 23906 23910 28
19129 23911 23912 28
19130 23911 23913 28
19131 23911 23914 28
19132 23911 23915 28
19133 23916 23917 28
19134 23916 23918 28
19135 23916 23919 28
19136 23916 23920 28
19137 23921 23922 28
19138 23921 23923 28
19139 23921 23924 28
19140 23921 23925 28
19141 23926 23927 28
19142 23926 23928 28
19143 23926 23929 28
19144 23926 23930 28
19145 23931 23932 28
19146 23931 23933 28
19147 23931 23934 28
19148 23931 23935 28
19149 23936 23937 28
19150 23936 23938 28
19151 23936 23939 28
19152 23936 23940 28
19153 23941 23942 28
19154 23941 23943 28
19155 23941 23944 28
19156 23941 23945 28
19157 23946 23947 28
19158 23946 23948 28
19159 23946 23949 28
19160 23946 23950 28
19161 23951 23952 28
19162 23951 23953 28
19163 23951 23954 28
19164 23951 23955 28
19165 23956 23957 28
19166 23956 23958 28
19167 23956 23959 28
19168 23956 23960 28
19169 23961 23962 28
19170 23961 23963 28
19171 23961 23964 28
19172 23961 23965 28
19173 23966 23967 28
19174 23966 23968 28
19175 23966 23969 28
19176 23966 23970 28
19177 23971 23972 28
19178 23971 23973 28
19179 23971 23974 28
19180 23971 23975 28
19181 23976 23977 28
19182 23976 23978 28
19183 23976 23979 28
19184 23976 23980 28
19185 23981 23982 28
19186 23981 23983 28
19187 23981 23984 28
19188 23981 23985 28
19189 23986 23987 28
19190 23986 23988 28
19191 23986 23989 28
19192 23986 23990 28
19193 23991 23992 28
19194 23991 23993 28
19195 23991 23994 28
19196 23991 23995 28
19197 23996 23997 28
19198 23996 23998 28
19199 23996 23999 28
19200 23996 24000 28
19201 24001 24002 28
19202 24001 24003 28
19203 24001 24004 28
19204 24001 24005 28
19205 24006 24007 28
19206 24006 24008 28
19207 24006 24009 28
19208 24006 24010 28
19209 24011 24012 28
19210 24011 24013 28
19211 24011 24014 28
19212 24011 24015 28
19213 24016 24017 28
19214 24016 24018 28
19215 24016 24019 28
19216 24016 24020 28
19217 24021 24022 28
19218 24021 24023 28
19219 24021 24024 28
19220 24021 24025 28
19221 24026 24027 28
19222 24026 24028 28
19223 24026 24029 28
19224 24026 24030 28
19225 24031 24032 28
19226 24031 24033 28
19227 24031 24034 28
19228 24031 24035 28
19229 24036 24037 28
19230 24036 24038 28
19231 24036 24039 28
19232 24036 24040 28
19233 24041 24042 28
19234 24041 24043 28
19235 24041 24044 28
19236 24041 24045 28
19237 24046 24047 28
19238 24046 24048 28
19239 24046 24049 28
19240 24046 24050 28
19241 24051 24052 28
19242 24051 24053 28
19243 24051 24054 28
19244 24051 24055 28
19245 24056 24057 28
19246 24056 24058 28
19247 24056 24059 28
19248 24056 24060 28
19249 24061 24062 28
19250 24061 24063 28
19251 24061 24064 28
19252 24061 24065 28
19253 24066 24067 28
19254 24066 24068 28
19255 24066 24069 28
19256 24066 24070 28
19257 24071 24072 28
19258 24071 24073 28
19259 24071 24074 28
19260 24071 24075 28
19261 24076 24077 28
19262 24076 24078 28
19263 24076 24079 28
19264 24076 24080 28
19265 24081 24082 28
19266 24081 24083 28
19267 24081 24084 28
19268 24081 24085 28
19269 24086 24087 28
19270 24086 24088 28
19271 24086 24089 28
19272 24086 24090 28
19273 24091 24092 28
19274 24091 24093 28
19275 24091 24094 28
19276 24091 24095 28
19277 24096 24097 28
19278 24096 24098 28
19279 24096 24099 28
19280 24096 24100 28
19281 24101 24102 28
19282 24101 24103 28
19283 24101 24104 28
19284 24101 24105 28
19285 24106 24107 28
19286 24106 24108 28
19287 24106 24109 28
19288 24106 24110 28
19289 24111 24112 28
19290 24111 24113 28
19291 24111 24114 28
19292 24111 24115 28
19293 24116 24117 28
19294 24116 24118 28
19295 24116 24119 28
19296 24116 24120 28
19297 24121 24122 28
19298 24121 24123 28
19299 24121 24124 28
19300 24121 24125 28
19301 24126 24127 28
19302 24126 24128 28
19303 24126 24129 28
19304 24126 24130 28
19305 24131 24132 28
19306 24131 24133 28
19307 24131 24134 28
19308 24131 24135 28
19309 24136 24137 28
19310 24136 24138 28
19311 24136 24139 28
19312 24136 24140 28
19313 24141 24142 28
19314 24141 24143 28
19315 24141 24144 28
19316 24141 24145 28
19317 24146 24147 28
19318 24146 24148 28
19319 24146 24149 28
19320 24146 24150 28
19321 24151 24152 28
19322 24151 24153 28
19323 24151 24154 28
19324 24151 24155 28
19325 24156 24157 28
19326 24156 24158 28
19327 24156 24159 28
19328 24156 24160 28
19329 24161 24162 28
19330 24161 24163 28
19331 24161 24164 28
19332 24161 24165 28
19333 24166 24167 28
19334 24166 24168 28
19335 24166 24169 28
19336 24166 24170 28
19337 24171 24172 28
19338 24171 24173 28
19339 24171 24174 28
19340 24171 24175 28
19341 24176 24177 28
19342 24176 24178 28
19343 24176 24179 28
19344 24176 24180 28
19345 24181 24182 28
19346 24181 24183 28
19347 24181 24184 28
19348 24181 24185 28
19349 24186 24187 28
19350 24186 24188 28
19351 24186 24189 28
19352 24186 24190 28
19353 24191 24192 28
19354 24191 24193 28
19355 24191 24194 28
19356 24191 24195 28
19357 24196 24197 28
19358 24196 24198 28
19359 24196 24199 28
19360 24196 24200 28
19361 24201 24202 28
19362 24201 24203 28
19363 24201 24204 28
19364 24201 24205 28
19365 24206 24207 28
19366 24206 24208 28
19367 24206 24209 28
19368 24206 24210 28
19369 24211 24212 28
19370 24211 24213 28
19371 24211 24214 28
19372 24211 24215 28
19373 24216 24217 28
19374 24216 24218 28
19375 24216 24219 28
19376 24216 24220 28
19377 24221 24222 28
19378 24221 24223 28
19379 24221 24224 28
19380 24221 24225 28
19381 24226 24227 28
19382 24226 24228 28
19383 24226 24229 28
19384 24226 24230 28
19385 24231 24232 28
19386 24231 24233 28
19387 24231 24234 28
19388 24231 24235 28
19389 24236 24237 28
19390 24236 24238 28
19391 24236 24239 28
19392 24236 24240 28
19393 24241 24242 28
19394 24241 24243 28
19395 24241 24244 28
19396 24241 24245 28
19397 24246 24247 28
19398 24246 24248 28
19399 24246 24249 28
19400 24246 24250 28
19401 24251 24252 28
19402 24251 24253 28
19403 24251 24254 28
19404 24251 24255 28
19405 24256 24257 28
19406 24256 24258 28
19407 24256 24259 28
19408 24256 24260 28
19409 24261 24262 28
19410 24261 24263 28
19411 24261 24264 28
19412 24261 24265 28
19413 24266 24267 28
19414 24266 24268 28
19415 24266 24269 28
19416 24266 24270 28
19417 24271 24272 28
19418 24271 24273 28
19419 24271 24274 28
19420 24271 24275 28
19421 24276 24277 28
19422 24276 24278 28
19423 24276 24279 28
19424 24276 24280 28
19425 24281 24282 28
19426 24281 24283 28
19427 24281 24284 28
19428 24281 24285 28
19429 24286 24287 28
19430 24286 24288 28
19431 24286 24289 28
19432 24286 24290 28
19433 24291 24292 28
19434 24291 24293 28
19435 24291 24294 28
19436 24291 24295 28
19437 24296 24297 28
19438 24296 24298 28
19439 24296 24299 28
19440 24296 24300 28
19441 24301 24302 28
19442 24301 24303 28
19443 24301 24304 28
19444 24301 24305 28
19445 24306 24307 28
19446 24306 24308 28
19447 24306 24309 28
19448 24306 24310 28
19449 24311 24312 28
19450 24311 24313 28
19451 24311 24314 28
19452 24311 24315 28
19453 24316 24317 28
19454 24316 24318 28
19455 24316 24319 28
19456 24316 24320 28
19457 24321 24322 28
19458 24321 24323 28
19459 24321 24324 28
19460 24321 24325 28
19461 24326 24327 28
19462 24326 24328 28
19463 24326 24329 28
19464 24326 24330 28
19465 24331 24332 28
19466 24331 24333 28
19467 24331 24334 28
19468 24331 24335 28
19469 24336 24337 28
19470 24336 24338 28
19471 24336 24339 28
19472 24336 24340 28
19473 24341 24342 28
19474 24341 24343 28
19475 24341 24344 28
19476 24341 24345 28
19477 24346 24347 28
19478 24346 24348 28
19479 24346 24349 28
19480 24346 24350 28
19481 24351 24352 28
19482 24351 24353 28
19483 24351 24354 28
19484 24351 24355 28
19485 24356 24357 28
19486 24356 24358 28
19487 24356 24359 28
19488 24356 24360 28
19489 24361 24362 28
19490 24361 24363 28
19491 24361 24364 28
19492 24361 24365 28
19493 24366 24367 28
19494 24366 24368 28
19495 24366 24369 28
19496 24366 24370 28
19497 24371 24372 28
19498 24371 24373 28
19499 24371 24374 28
19500 24371 24375 28
19501 24376 24377 28
19502 24376 24378 28
19503 24376 24379 28
19504 24376 24380 28
19505 24381 24382 28
19506 24381 24383 28
19507 24381 24384 28
19508 24381 24385 28
19509 24386 24387 28
19510 24386 24388 28
19511 24386 24389 28
19512 24386 24390 28
19513 24391 24392 28
19514 24391 24393 28
19515 24391 24394 28
19516 24391 24395 28
19517 24396 24397 28
19518 24396 24398 28
19519 24396 24399 28
19520 24396 24400 28
19521 24401 24402 28
19522 24401 24403 28
19523 24401 24404 28
19524 24401 24405 28
19525 24406 24407 28
19526 24406 24408 28
19527 24406 24409 28
19528 24406 24410 28
19529 24411 24412 28
19530 24411 24413 28
19531 24411 24414 28
19532 24411 24415 28
19533 24416 24417 28
19534 24416 24418 28
19535 24416 24419 28
19536 24416 24420 28
19537 24421 24422 28
19538 24421 24423 28
19539 24421 24424 28
19540 24421 24425 28
19541 24426 24427 28
19542 24426 24428 28
19543 24426 24429 28
19544 24426 24430 28
19545 24431 24432 28
19546 24431 24433 28
19547 24431 24434 28
19548 24431 24435 28
19549 24436 24437 28
19550 24436 24438 28
19551 24436 24439 28
19552 24436 24440 28
19553 24441 24442 28
19554 24441 24443 28
19555 24441 24444 28
19556 24441 24445 28
19557 24446 24447 28
19558 24446 24448 28
19559 24446 24449 28
19560 24446 24450 28
19561 24451 24452 28
19562 24451 24453 28
19563 24451 24454 28
19564 24451 24455 28
19565 24456 24457 28
19566 24456 24458 28
19567 24456 24459 28
19568 24456 24460 28
19569 24461 24462 28
19570 24461 24463 28
19571 24461 24464 28
19572 24461 24465 28
19573 24466 24467 28
19574 24466 24468 28
19575 24466 24469 28
19576 24466 24470 28
19577 24471 24472 28
19578 24471 24473 28
19579 24471 24474 28
19580 24471 24475 28
19581 24476 24477 28
19582 24476 24478 28
19583 24476 24479 28
19584 24476 24480 28
19585 24481 24482 28
19586 24481 24483 28
19587 24481 24484 28
19588 24481 24485 28
19589 24486 24487 28
19590 24486 24488 28
19591 24486 24489 28
19592 24486 24490 28
19593 24491 24492 28
19594 24491 24493 28
19595 24491 24494 28
19596 24491 24495 28
19597 24496 24497 28
19598 24496 24498 28
19599 24496 24499 28
19600 24496 24500 28
19601 24501 24502 28
19602 24501 24503 28
19603 24501 24504 28
19604 24501 24505 28
19605 24506 24507 28
19606 24506 24508 28
19607 24506 24509 28
19608 24506 24510 28
19609 24511 24512 28
19610 24511 24513 28
19611 24511 24514 28
19612 24511 24515 28
19613 24516 24517 28
19614 24516 24518 28
19615 24516 24519 28
19616 24516 24520 28
19617 24521 24522 28
19618 24521 24523 28
19619 24521 24524 28
19620 24521 24525 28
19621 24526 24527 28
19622 24526 24528 28
19623 24526 24529 28
19624 24526 24530 28
19625 24531 24532 28
19626 24531 24533 28
19627 24531 24534 28
19628 24531 24535 28
19629 24536 24537 28
19630 24536 24538 28
19631 24536 24539 28
19632 24536 24540 28
19633 24541 24542 28
19634 24541 24543 28
19635 24541 24544 28
19636 24541 24545 28
19637 24546 24547 28
19638 24546 24548 28
19639 24546 24549 28
19640 24546 24550 28
19641 24551 24552 28
19642 24551 24553 28
19643 24551 24554 28
19644 24551 24555 28
19645 24556 24557 28
19646 24556 24558 28
19647 24556 24559 28
19648 24556 24560 28
19649 24561 24562 28
19650 24561 24563 28
19651 24561 24564 28
19652 24561 24565 28
19653 24566 24567 28
19654 24566 24568 28
19655 24566 24569 28
19656 24566 24570 28
19657 24571 24572 28
19658 24571 24573 28
19659 24571 24574 28
19660 24571 24575 28
19661 24576 24577 28
19662 24576 24578 28
19663 24576 24579 28
19664 24576 24580 28
19665 24581 24582 28
19666 24581 24583 28
19667 24581 24584 28
19668 24581 24585 28
19669 24586 24587 28
19670 24586 24588 28
19671 24586 24589 28
19672 24586 24590 28
19673 24591 24592 28
19674 24591 24593 28
19675 24591 24594 28
19676 24591 24595 28
19677 24596 24597 28
19678 24596 24598 28
19679 24596 24599 28
19680 24596 24600 28
19681 24601 24602 28
19682 24601 24603 28
19683 24601 24604 28
19684 24601 24605 28
19685 24606 24607 28
19686 24606 24608 28
19687 24606 24609 28
19688 24606 24610 28
19689 24611 24612 28
19690 24611 24613 28
19691 24611 24614 28
19692 24611 24615 28
19693 24616 24617 28
19694 24616 24618 28
19695 24616 24619 28
19696 24616 24620 28
19697 24621 24622 28
19698 24621 24623 28
19699 24621 24624 28
19700 24621 24625 28
19701 24626 24627 28
19702 24626 24628 28
19703 24626 24629 28
19704 24626 24630 28
19705 24631 24632 28
19706 24631 24633 28
19707 24631 24634 28
19708 24631 24635 28
19709 24636 24637 28
19710 24636 24638 28
19711 24636 24639 28
19712 24636 24640 28
19713 24641 24642 28
19714 24641 24643 28
19715 24641 24644 28
19716 24641 24645 28
19717 24646 24647 28
19718 24646 24648 28
19719 24646 24649 28
19720 24646 24650 28
19721 24651 24652 28
19722 24651 24653 28
19723 24651 24654 28
19724 24651 24655 28
19725 24656 24657 28
19726 24656 24658 28
19727 24656 24659 28
19728 24656 24660 28
19729 24661 24662 28
19730 24661 24663 28
19731 24661 24664 28
19732 24661 24665 28
19733 24666 24667 28
19734 24666 24668 28
19735 24666 24669 28
19736 24666 24670 28
19737 24671 24672 28
19738 24671 24673 28
19739 24671 24674 28
19740 24671 24675 28
19741 24676 24677 28
19742 24676 24678 28
19743 24676 24679 28
19744 24676 24680 28
19745 24681 24682 28
19746 24681 24683 28
19747 24681 24684 28
19748 24681 24685 28
19749 24686 24687 28
19750 24686 24688 28
19751 24686 24689 28
19752 24686 24690 28
19753 24691 24692 28
19754 24691 24693 28
19755 24691 24694 28
19756 24691 24695 28
19757 24696 24697 28
19758 24696 24698 28
19759 24696 24699 28
19760 24696 24700 28
19761 24701 24702 28
19762 24701 24703 28
19763 24701 24704 28
19764 24701 24705 28
19765 24706 24707 28
19766 24706 24708 28
19767 24706 24709 28
19768 24706 24710 28
19769 24711 24712 28
19770 24711 24713 28
19771 24711 24714 28
19772 24711 24715 28
19773 24716 24717 28
19774 24716 24718 28
19775 24716 24719 28
19776 24716 24720 28
19777 24721 24722 28
19778 24721 24723 28
19779 24721 24724 28
19780 24721 24725 28
19781 24726 24727 28
19782 24726 24728 28
19783 24726 24729 28
19784 24726 24730 28
19785 24731 24732 28
19786 24731 24733 28
19787 24731 24734 28
19788 24731 24735 28
19789 24736 24737 28
19790 24736 24738 28
19791 24736 24739 28
19792 24736 24740 28
19793 24741 24742 28
19794 24741 24743 28
19795 24741 24744 28
19796 24741 24745 28
19797 24746 24747 28
19798 24746 24748 28
19799 24746 24749 28
19800 24746 24750 28
19801 24751 24752 28
19802 24751 24753 28
19803 24751 24754 28
19804 24751 24755 28
19805 24756 24757 28
19806 24756 24758 28
19807 24756 24759 28
19808 24756 24760 28
19809 24761 24762 28
19810 24761 24763 28
19811 24761 24764 28
19812 24761 24765 28
19813 24766 24767 28
19814 24766 24768 28
19815 24766 24769 28
19816 24766 24770 28
19817 24771 24772 28
19818 24771 24773 28
19819 24771 24774 28
19820 24771 24775 28
19821 24776 24777 28
19822 24776 24778 28
19823 24776 24779 28
19824 24776 24780 28
19825 24781 24782 28
19826 24781 24783 28
19827 24781 24784 28
19828 24781 24785 28
19829 24786 24787 28
19830 24786 24788 28
19831 24786 24789 28
19832 24786 24790 28
19833 24791 24792 28
19834 24791 24793 28
19835 24791 24794 28
19836 24791 24795 28
19837 24796 24797 28
19838 24796 24798 28
19839 24796 24799 28
19840 24796 24800 28
19841 24801 24802 28
19842 24801 24803 28
19843 24801 24804 28
19844 24801 24805 28
19845 24806 24807 28
19846 24806 24808 28
19847 24806 24809 28
19848 24806 24810 28
19849 24811 24812 28
19850 24811 24813 28
19851 24811 24814 28
19852 24811 24815 28
19853 24816 24817 28
19854 24816 24818 28
19855 24816 24819 28
19856 24816 24820 28
19857 24821 24822 28
19858 24821 24823 28
19859 24821 24824 28
19860 24821 24825 28
19861 24826 24827 28
19862 24826 24828 28
19863 24826 24829 28
19864 24826 24830 28
19865 24831 24832 28
19866 24831 24833 28
19867 24831 24834 28
19868 24831 24835 28
19869 24836 24837 28
19870 24836 24838 28
19871 24836 24839 28
19872 24836 24840 28
19873 24841 24842 28
19874 24841 24843 28
19875 24841 24844 28
19876 24841 24845 28
19877 24846 24847 28
19878 24846 24848 28
19879 24846 24849 28
19880 24846 24850 28
19881 24851 24852 28
19882 24851 24853 28
19883 24851 24854 28
19884 24851 24855 28
19885 24856 24857 28
19886 24856 24858 28
19887 24856 24859 28
19888 24856 24860 28
19889 24861 24862 28
19890 24861 24863 28
19891 24861 24864 28
19892 24861 24865 28
19893 24866 24867 28
19894 24866 24868 28
19895 24866 24869 28
19896 24866 24870 28
19897 24871 24872 28
19898 24871 24873 28
19899 24871 24874 28
19900 24871 24875 28
19901 24876 24877 28
19902 24876 24878 28
19903 24876 24879 28
19904 24876 24880 28
19905 24881 24882 28
19906 24881 24883 28
19907 24881 24884 28
19908 24881 24885 28
19909 24886 24887 28
19910 24886 24888 28
19911 24886 24889 28
19912 24886 24890 28
19913 24891 24892 28
19914 24891 24893 28
19915 24891 24894 28
19916 24891 24895 28
19917 24896 24897 28
19918 24896 24898 28
19919 24896 24899 28
19920 24896 24900 28
19921 24901 24902 28
19922 24901 24903 28
19923 24901 24904 28
19924 24901 24905 28
19925 24906 24907 28
19926 24906 24908 28
19927 24906 24909 28
19928 24906 24910 28
19929 24911 24912 28
19930 24911 24913 28
19931 24911 24914 28
19932 24911 24915 28
19933 24916 24917 28
19934 24916 24918 28
19935 24916 24919 28
19936 24916 24920 28
19937 24921 24922 28
19938 24921 24923 28
19939 24921 24924 28
19940 24921 24925 28
19941 24926 24927 28
19942 24926 24928 28
19943 24926 24929 28
19944 24926 24930 28
19945 24931 24932 28
19946 24931 24933 28
19947 24931 24934 28
19948 24931 24935 28
19949 24936 24937 28
19950 24936 24938 28
19951 24936 24939 28
19952 24936 24940 28
19953 24941 24942 28
19954 24941 24943 28
19955 24941 24944 28
19956 24941 24945 28
19957 24946 24947 28
19958 24946 24948 28
19959 24946 24949 28
19960 24946 24950 28
19961 24951 24952 28
19962 24951 24953 28
19963 24951 24954 28
19964 24951 24955 28
19965 24956 24957 28
19966 24956 24958 28
19967 24956 24959 28
19968 24956 24960 28
19969 24961 24962 28
19970 24961 24963 28
19971 24961 24964 28
19972 24961 24965 28
19973 24966 24967 28
19974 24966 24968 28
19975 24966 24969 28
19976 24966 24970 28
19977 24971 24972 28
19978 24971 24973 28
19979 24971 24974 28
19980 24971 24975 28
19981 24976 24977 28
19982 24976 24978 28
19983 24976 24979 28
19984 24976 24980 28
19985 24981 24982 28
19986 24981 24983 28
19987 24981 24984 28
19988 24981 24985 28
19989 24986 24987 28
19990 24986 24988 28
19991 24986 24989 28
19992 24986 24990 28
19993 24991 24992 28
19994 24991 24993 28
19995 24991 24994 28
19996 24991 24995 28
19997 24996 24997 28
19998 24996 24998 28
19999 24996 24999 28
20000 24996 25000 28
20001 25001 25002 28
20002 25001 25003 28
20003 25001 25004 28
20004 25001 25005 28
20005 25006 25007 28
20006 25006 25008 28
20007 25006 25009 28
20008 25006 25010 28
20009 25011 25012 28
20010 25011 25013 28
20011 25011 25014 28
20012 25011 25015 28
20013 25016 25017 28
20014 25016 25018 28
20015 25016 25019 28
20016 25016 25020 28
20017 25021 25022 28
20018 25021 25023 28
20019 25021 25024 28
20020 25021 25025 28
20021 25026 25027 28
20022 25026 25028 28
20023 25026 25029 28
20024 25026 25030 28
20025 25031 25032 28
20026 25031 25033 28
20027 25031 25034 28
20028 25031 25035 28
20029 25036 25037 28
20030 25036 25038 28
20031 25036 25039 28
20032 25036 25040 28
20033 25041 25042 28
20034 25041 25043 28
20035 25041 25044 28
20036 25041 25045 28
20037 25046 25047 28
20038 25046 25048 28
20039 25046 25049 28
20040 25046 25050 28
20041 25051 25052 28
20042 25051 25053 28
20043 25051 25054 28
20044 25051 25055 28
20045 25056 25057 28
20046 25056 25058 28
20047 25056 25059 28
20048 25056 25060 28
20049 25061 25062 28
20050 25061 25063 28
20051 25061 25064 28
20052 25061 25065 28
20053 25066 25067 28
20054 25066 25068 28
20055 25066 25069 28
20056 25066 25070 28
20057 25071 25072 28
20058 25071 25073 28
20059 25071 25074 28
20060 25071 25075 28
20061 25076 25077 28
20062 25076 25078 28
20063 25076 25079 28
20064 25076 25080 28
20065 25081 25082 28
20066 25081 25083 28
20067 25081 25084 28
20068 25081 25085 28
20069 25086 25087 28
20070 25086 25088 28
20071 25086 25089 28
20072 25086 25090 28
20073 25091 25092 28
20074 25091 25093 28
20075 25091 25094 28
20076 25091 25095 28
20077 25096 25097 28
20078 25096 25098 28
20079 25096 25099 28
20080 25096 25100 28
20081 25101 25102 28
20082 25101 25103 28
20083 25101 25104 28
20084 25101 25105 28
20085 25106 25107 28
20086 25106 25108 28
20087 25106 25109 28
20088 25106 25110 28
20089 25111 25112 28
20090 25111 25113 28
20091 25111 25114 28
20092 25111 25115 28
20093 25116 25117 28
20094 25116 25118 28
20095 25116 25119 28
20096 25116 25120 28
20097 25121 25122 28
20098 25121 25123 28
20099 25121 25124 28
20100 25121 25125 28
20101 25126 25127 28
20102 25126 25128 28
20103 25126 25129 28
20104 25126 25130 28
20105 25131 25132 28
20106 25131 25133 28
20107 25131 25134 28
20108 25131 25135 28
20109 25136 25137 28
20110 25136 25138 28
20111 25136 25139 28
20112 25136 25140 28
20113 25141 25142 28
20114 25141 25143 28
20115 25141 25144 28
20116 25141 25145 28
20117 25146 25147 28
20118 25146 25148 28
20119 25146 25149 28
20120 25146 25150 28
20121 25151 25152 28
20122 25151 25153 28
20123 25151 25154 28
20124 25151 25155 28
20125 25156 25157 28
20126 25156 25158 28
20127 25156 25159 28
20128 25156 25160 28
20129 25161 25162 28
20130 25161 25163 28
20131 25161 25164 28
20132 25161 25165 28
20133 25166 25167 28
20134 25166 25168 28
20135 25166 25169 28
20136 25166 25170 28
20137 25171 25172 28
20138 25171 25173 28
20139 25171 25174 28
20140 25171 25175 28
20141 25176 25177 28
20142 25176 25178 28
20143 25176 25179 28
20144 25176 25180 28
20145 25181 25182 28
20146 25181 25183 28
20147 25181 25184 28
20148 25181 25185 28
20149 25186 25187 28
20150 25186 25188 28
20151 25186 25189 28
20152 25186 25190 28
20153 25191 25192 28
20154 25191 25193 28
20155 25191 25194 28
20156 25191 25195 28
20157 25196 25197 28
20158 25196 25198 28
20159 25196 25199 28
20160 25196 25200 28
20161 25201 25202 28
20162 25201 25203 28
20163 25201 25204 28
20164 25201 25205 28
20165 25206 25207 28
20166 25206 25208 28
20167 25206 25209 28
20168 25206 25210 28
20169 25211 25212 28
20170 25211 25213 28
20171 25211 25214 28
20172 25211 25215 28
20173 25216 25217 28
20174 25216 25218 28
20175 25216 25219 28
20176 25216 25220 28
20177 25221 25222 28
20178 25221 25223 28
20179 25221 25224 28
20180 25221 25225 28
20181 25226 25227 28
20182 25226 25228 28
20183 25226 25229 28
20184 25226 25230 28
20185 25231 25232 28
20186 25231 25233 28
20187 25231 25234 28
20188 25231 25235 28
20189 25236 25237 28
20190 25236 25238 28
20191 25236 25239 28
20192 25236 25240 28
20193 25241 25242 28
20194 25241 25243 28
20195 25241 25244 28
20196 25241 25245 28
20197 25246 25247 28
20198 25246 25248 28
20199 25246 25249 28
20200 25246 25250 28
20201 25251 25252 28
20202 25251 25253 28
20203 25251 25254 28
20204 25251 25255 28
20205 25256 25257 28
20206 25256 25258 28
20207 25256 25259 28
20208 25256 25260 28
20209 25261 25262 28
20210 25261 25263 28
20211 25261 25264 28
20212 25261 25265 28
20213 25266 25267 28
20214 25266 25268 28
20215 25266 25269 28
20216 25266 25270 28
20217 25271 25272 28
20218 25271 25273 28
20219 25271 25274 28
20220 25271 25275 28
20221 25276 25277 28
20222 25276 25278 28
20223 25276 25279 28
20224 25276 25280 28
20225 25281 25282 28
20226 25281 25283 28
20227 25281 25284 28
20228 25281 25285 28
20229 25286 25287 28
20230 25286 25288 28
20231 25286 25289 28
20232 25286 25290 28
20233 25291 25292 28
20234 25291 25293 28
20235 25291 25294 28
20236 25291 25295 28
20237 25296 25297 28
20238 25296 25298 28
20239 25296 25299 28
20240 25296 25300 28
20241 25301 25302 28
20242 25301 25303 28
20243 25301 25304 28
20244 25301 25305 28
20245 25306 25307 28
20246 25306 25308 28
20247 25306 25309 28
20248 25306 25310 28
20249 25311 25312 28
20250 25311 25313 28
20251 25311 25314 28
20252 25311 25315 28
20253 25316 25317 28
20254 25316 25318 28
20255 25316 25319 28
20256 25316 25320 28
20257 25321 25322 28
20258 25321 25323 28
20259 25321 25324 28
20260 25321 25325 28
20261 25326 25327 28
20262 25326 25328 28
20263 25326 25329 28
20264 25326 25330 28
20265 25331 25332 28
20266 25331 25333 28
20267 25331 25334 28
20268 25331 25335 28
20269 25336 25337 28
20270 25336 25338 28
20271 25336 25339 28
20272 25336 25340 28
20273 25341 25342 28
20274 25341 25343 28
20275 25341 25344 28
20276 25341 25345 28
20277 25346 25347 28
20278 25346 25348 28
20279 25346 25349 28
20280 25346 25350 28
20281 25351 25352 28
20282 25351 25353 28
20283 25351 25354 28
20284 25351 25355 28
20285 25356 25357 28
20286 25356 25358 28
20287 25356 25359 28
20288 25356 25360 28
20289 25361 25362 28
20290 25361 25363 28
20291 25361 25364 28
20292 25361 25365 28
20293 25366 25367 28
20294 25366 25368 28
20295 25366 25369 28
20296 25366 25370 28
20297 25371 25372 28
20298 25371 25373 28
20299 25371 25374 28
20300 25371 25375 28
20301 25376 25377 28
20302 25376 25378 28
20303 25376 25379 28
20304 25376 25380 28
20305 25381 25382 28
20306 25381 25383 28
20307 25381 25384 28
20308 25381 25385 28
20309 25386 25387 28
20310 25386 25388 28
20311 25386 25389 28
20312 25386 25390 28
20313 25391 25392 28
20314 25391 25393 28
20315 25391 25394 28
20316 25391 25395 28
20317 25396 25397 28
20318 25396 25398 28
20319 25396 25399 28
20320 25396 25400 28
20321 25401 25402 28
20322 25401 25403 28
20323 25401 25404 28
20324 25401 25405 28
20325 25406 25407 28
20326 25406 25408 28
20327 25406 25409 28
20328 25406 25410 28
20329 25411 25412 28
20330 25411 25413 28
20331 25411 25414 28
20332 25411 25415 28
20333 25416 25417 28
20334 25416 25418 28
20335 25416 25419 28
20336 25416 25420 28
20337 25421 25422 28
20338 25421 25423 28
20339 25421 25424 28
20340 25421 25425 28
20341 25426 25427 28
20342 25426 25428 28
20343 25426 25429 28
20344 25426 25430 28
20345 25431 25432 28
20346 25431 25433 28
20347 25431 25434 28
20348 25431 25435 28
20349 25436 25437 28
20350 25436 25438 28
20351 25436 25439 28
20352 25436 25440 28
20353 25441 25442 28
20354 25441 25443 28
20355 25441 25444 28
20356 25441 25445 28
20357 25446 25447 28
20358 25446 25448 28
20359 25446 25449 28
20360 25446 25450 28
20361 25451 25452 28
20362 25451 25453 28
20363 25451 25454 28
20364 25451 25455 28
20365 25456 25457 28
20366 25456 25458 28
20367 25456 25459 28
20368 25456 25460 28
20369 25461 25462 28
20370 25461 25463 28
20371 25461 25464 28
20372 25461 25465 28
20373 25466 25467 28
20374 25466 25468 28
20375 25466 25469 28
20376 25466 25470 28
20377 25471 25472 28
20378 25471 25473 28
20379 25471 25474 28
20380 25471 25475 28
20381 25476 25477 28
20382 25476 25478 28
20383 25476 25479 28
20384 25476 25480 28
20385 25481 25482 28
20386 25481 25483 28
20387 25481 25484 28
20388 25481 25485 28
20389 25486 25487 28
20390 25486 25488 28
20391 25486 25489 28
20392 25486 25490 28
20393 25491 25492 28
20394 25491 25493 28
20395 25491 25494 28
20396 25491 25495 28
20397 25496 25497 28
20398 25496 25498 28
20399 25496 25499 28
20400 25496 25500 28
20401 25501 25502 28
20402 25501 25503 28
20403 25501 25504 28
20404 25501 25505 28
20405 25506 25507 28
20406 25506 25508 28
20407 25506 25509 28
20408 25506 25510 28
20409 25511 25512 28
20410 25511 25513 28
20411 25511 25514 28
20412 25511 25515 28
20413 25516 25517 28
20414 25516 25518 28
20415 25516 25519 28
20416 25516 25520 28
20417 25521 25522 28
20418 25521 25523 28
20419 25521 25524 28
20420 25521 25525 28
20421 25526 25527 28
20422 25526 25528 28
20423 25526 25529 28
20424 25526 25530 28
20425 25531 25532 28
20426 25531 25533 28
20427 25531 25534 28
20428 25531 25535 28
20429 25536 25537 28
20430 25536 25538 28
20431 25536 25539 28
20432 25536 25540 28
20433 25541 25542 28
20434 25541 25543 28
20435 25541 25544 28
20436 25541 25545 28
20437 25546 25547 28
20438 25546 25548 28
20439 25546 25549 28
20440 25546 25550 28
20441 25551 25552 28
20442 25551 25553 28
20443 25551 25554 28
20444 25551 25555 28
20445 25556 25557 28
20446 25556 25558 28
20447 25556 25559 28
20448 25556 25560 28
20449 25561 25562 28
20450 25561 25563 28
20451 25561 25564 28
20452 25561 25565 28
20453 25566 25567 28
20454 25566 25568 28
20455 25566 25569 28
20456 25566 25570 28
20457 25571 25572 28
20458 25571 25573 28
20459 25571 25574 28
20460 25571 25575 28
20461 25576 25577 28
20462 25576 25578 28
20463 25576 25579 28
20464 25576 25580 28
20465 25581 25582 28
20466 25581 25583 28
20467 25581 25584 28
20468 25581 25585 28
20469 25586 25587 28
20470 25586 25588 28
20471 25586 25589 28
20472 25586 25590 28
20473 25591 25592 28
20474 25591 25593 28
20475 25591 25594 28
20476 25591 25595 28
20477 25596 25597 28
20478 25596 25598 28
20479 25596 25599 28
20480 25596 25600 28
20481 25601 25602 28
20482 25601 25603 28
20483 25601 25604 28
20484 25601 25605 28
20485 25606 25607 28
20486 25606 25608 28
20487 25606 25609 28
20488 25606 25610 28
20489 25611 25612 28
20490 25611 25613 28
20491 25611 25614 28
20492 25611 25615 28
20493 25616 25617 28
20494 25616 25618 28
20495 25616 25619 28
20496 25616 25620 28
20497 25621 25622 28
20498 25621 25623 28
20499 25621 25624 28
20500 25621 25625 28
20501 25626 25627 28
20502 25626 25628 28
20503 25626 25629 28
20504 25626 25630 28
20505 25631 25632 28
20506 25631 25633 28
20507 25631 25634 28
20508 25631 25635 28
20509 25636 25637 28
20510 25636 25638 28
20511 25636 25639 28
20512 25636 25640 28
20513 25641 25642 28
20514 25641 25643 28
20515 25641 25644 28
20516 25641 25645 28
20517 25646 25647 28
20518 25646 25648 28
20519 25646 25649 28
20520 25646 25650 28
20521 25651 25652 28
20522 25651 25653 28
20523 25651 25654 28
20524 25651 25655 28
20525 25656 25657 28
20526 25656 25658 28
20527 25656 25659 28
20528 25656 25660 28
20529 25661 25662 28
20530 25661 25663 28
20531 25661 25664 28
20532 25661 25665 28
20533 25666 25667 28
20534 25666 25668 28
20535 25666 25669 28
20536 25666 25670 28
20537 25671 25672 28
20538 25671 25673 28
20539 25671 25674 28
20540 25671 25675 28
20541 25676 25677 28
20542 25676 25678 28
20543 25676 25679 28
20544 25676 25680 28
20545 25681 25682 28
20546 25681 25683 28
20547 25681 25684 28
20548 25681 25685 28
20549 25686 25687 28
20550 25686 25688 28
20551 25686 25689 28
20552 25686 25690 28
20553 25691 25692 28
20554 25691 25693 28
20555 25691 25694 28
20556 25691 25695 28
20557 25696 25697 28
20558 25696 25698 28
20559 25696 25699 28
20560 25696 25700 28
20561 25701 25702 28
20562 25701 25703 28
20563 25701 25704 28
20564 25701 25705 28
20565 25706 25707 28
20566 25706 25708 28
20567 25706 25709 28
20568 25706 25710 28
20569 25711 25712 28
20570 25711 25713 28
20571 25711 25714 28
20572 25711 25715 28
20573 25716 25717 28
20574 25716 25718 28
20575 25716 25719 28
20576 25716 25720 28
20577 25721 25722 28
20578 25721 25723 28
20579 25721 25724 28
20580 25721 25725 28
20581 25726 25727 28
20582 25726 25728 28
20583 25726 25729 28
20584 25726 25730 28
20585 25731 25732 28
20586 25731 25733 28
20587 25731 25734 28
20588 25731 25735 28
20589 25736 25737 28
20590 25736 25738 28
20591 25736 25739 28
20592 25736 25740 28
20593 25741 25742 28
20594 25741 25743 28
20595 25741 25744 28
20596 25741 25745 28
20597 25746 25747 28
20598 25746 25748 28
20599 25746 25749 28
20600 25746 25750 28
20601 25751 25752 28
20602 25751 25753 28
20603 25751 25754 28
20604 25751 25755 28
20605 25756 25757 28
20606 25756 25758 28
20607 25756 25759 28
20608 25756 25760 28
20609 25761 25762 28
20610 25761 25763 28
20611 25761 25764 28
20612 25761 25765 28
20613 25766 25767 28
20614 25766 25768 28
20615 25766 25769 28
20616 25766 25770 28
20617 25771 25772 28
20618 25771 25773 28
20619 25771 25774 28
20620 25771 25775 28
20621 25776 25777 28
20622 25776 25778 28
20623 25776 25779 28
20624 25776 25780 28
20625 25781 25782 28
20626 25781 25783 28
20627 25781 25784 28
20628 25781 25785 28
20629 25786 25787 28
20630 25786 25788 28
20631 25786 25789 28
20632 25786 25790 28
20633 25791 25792 28
20634 25791 25793 28
20635 25791 25794 28
20636 25791 25795 28
20637 25796 25797 28
20638 25796 25798 28
20639 25796 25799 28
20640 25796 25800 28
20641 25801 25802 28
20642 25801 25803 28
20643 25801 25804 28
20644 25801 25805 28
20645 25806 25807 28
20646 25806 25808 28
20647 25806 25809 28
20648 25806 25810 28
20649 25811 25812 28
20650 25811 25813 28
20651 25811 25814 28
20652 25811 25815 28
20653 25816 25817 28
20654 25816 25818 28
20655 25816 25819 28
20656 25816 25820 28
20657 25821 25822 28
20658 25821 25823 28
20659 25821 25824 28
20660 25821 25825 28
20661 25826 25827 28
20662 25826 25828 28
20663 25826 25829 28
20664 25826 25830 28
20665 25831 25832 28
20666 25831 25833 28
20667 25831 25834 28
20668 25831 25835 28
20669 25836 25837 28
20670 25836 25838 28
20671 25836 25839 28
20672 25836 25840 28
20673 25841 25842 28
20674 25841 25843 28
20675 25841 25844 28
20676 25841 25845 28
20677 25846 25847 28
20678 25846 25848 28
20679 25846 25849 28
20680 25846 25850 28
20681 25851 25852 28
20682 25851 25853 28
20683 25851 25854 28
20684 25851 25855 28
20685 25856 25857 28
20686 25856 25858 28
20687 25856 25859 28
20688 25856 25860 28
20689 25861 25862 28
20690 25861 25863 28
20691 25861 25864 28
20692 25861 25865 28
20693 25866 25867 28
20694 25866 25868 28
20695 25866 25869 28
20696 25866 25870 28
20697 25871 25872 28
20698 25871 25873 28
20699 25871 25874 28
20700 25871 25875 28
20701 25876 25877 28
20702 25876 25878 28
20703 25876 25879 28
20704 25876 25880 28
20705 25881 25882 28
20706 25881 25883 28
20707 25881 25884 28
20708 25881 25885 28
20709 25886 25887 28
20710 25886 25888 28
20711 25886 25889 28
20712 25886 25890 28
20713 25891 25892 28
20714 25891 25893 28
20715 25891 25894 28
20716 25891 25895 28
20717 25896 25897 28
20718 25896 25898 28
20719 25896 25899 28
20720 25896 25900 28
20721 25901 25902 28
20722 25901 25903 28
20723 25901 25904 28
20724 25901 25905 28
20725 25906 25907 28
20726 25906 25908 28
20727 25906 25909 28
20728 25906 25910 28
20729 25911 25912 28
20730 25911 25913 28
20731 25911 25914 28
20732 25911 25915 28
20733 25916 25917 28
20734 25916 25918 28
20735 25916 25919 28
20736 25916 25920 28
20737 25921 25922 28
20738 25921 25923 28
20739 25921 25924 28
20740 25921 25925 28
20741 25926 25927 28
20742 25926 25928 28
20743 25926 25929 28
20744 25926 25930 28
20745 25931 25932 28
20746 25931 25933 28
20747 25931 25934 28
20748 25931 25935 28
20749 25936 25937 28
20750 25936 25938 28
20751 25936 25939 28
20752 25936 25940 28
20753 25941 25942 28
20754 25941 25943 28
20755 25941 25944 28
20756 25941 25945 28
20757 25946 25947 28
20758 25946 25948 28
20759 25946 25949 28
20760 25946 25950 28
20761 25951 25952 28
20762 25951 25953 28
20763 25951 25954 28
20764 25951 25955 28
20765 25956 25957 28
20766 25956 25958 28
20767 25956 25959 28
20768 25956 25960 28
20769 25961 25962 28
20770 25961 25963 28
20771 25961 25964 28
20772 25961 25965 28
20773 25966 25967 28
20774 25966 25968 28
20775 25966 25969 28
20776 25966 25970 28
20777 25971 25972 28
20778 25971 25973 28
20779 25971 25974 28
20780 25971 25975 28
20781 25976 25977 28
20782 25976 25978 28
20783 25976 25979 28
20784 25976 25980 28
20785 25981 25982 28
20786 25981 25983 28
20787 25981 25984 28
20788 25981 25985 28
20789 25986 25987 28
20790 25986 25988 28
20791 25986 25989 28
20792 25986 25990 28
20793 25991 25992 28
20794 25991 25993 28
20795 25991 25994 28
20796 25991 25995 28
20797 25996 25997 28
20798 25996 25998 28
20799 25996 25999 28
20800 25996 26000 28
20801 26001 26002 28
20802 26001 26003 28
20803 26001 26004 28
20804 26001 26005 28
20805 26006 26007 28
20806 26006 26008 28
20807 26006 26009 28
20808 26006 26010 28
20809 26011 26012 28
20810 26011 26013 28
20811 26011 26014 28
20812 26011 26015 28
20813 26016 26017 28
20814 26016 26018 28
20815 26016 26019 28
20816 26016 26020 28
20817 26021 26022 28
20818 26021 26023 28
20819 26021 26024 28
20820 26021 26025 28
20821 26026 26027 28
20822 26026 26028 28
20823 26026 26029 28
20824 26026 26030 28
20825 26031 26032 28
20826 26031 26033 28
20827 26031 26034 28
20828 26031 26035 28
20829 26036 26037 28
20830 26036 26038 28
20831 26036 26039 28
20832 26036 26040 28
20833 26041 26042 28
20834 26041 26043 28
20835 26041 26044 28
20836 26041 26045 28
20837 26046 26047 28
20838 26046 26048 28
20839 26046 26049 28
20840 26046 26050 28
20841 26051 26052 28
20842 26051 26053 28
20843 26051 26054 28
20844 26051 26055 28
20845 26056 26057 28
20846 26056 26058 28
20847 26056 26059 28
20848 26056 26060 28
20849 26061 26062 28
20850 26061 26063 28
20851 26061 26064 28
20852 26061 26065 28
20853 26066 26067 28
20854 26066 26068 28
20855 26066 26069 28
20856 26066 26070 28
20857 26071 26072 28
20858 26071 26073 28
20859 26071 26074 28
20860 26071 26075 28
20861 26076 26077 28
20862 26076 26078 28
20863 26076 26079 28
20864 26076 26080 28
20865 26081 26082 28
20866 26081 26083 28
20867 26081 26084 28
20868 26081 26085 28
20869 26086 26087 28
20870 26086 26088 28
20871 26086 26089 28
20872 26086 26090 28
20873 26091 26092 28
20874 26091 26093 28
20875 26091 26094 28
20876 26091 26095 28
20877 26096 26097 28
20878 26096 26098 28
20879 26096 26099 28
20880 26096 26100 28
20881 26101 26102 28
20882 26101 26103 28
20883 26101 26104 28
20884 26101 26105 28
20885 26106 26107 28
20886 26106 26108 28
20887 26106 26109 28
20888 26106 26110 28
20889 26111 26112 28
20890 26111 26113 28
20891 26111 26114 28
20892 26111 26115 28
20893 26116 26117 28
20894 26116 26118 28
20895 26116 26119 28
20896 26116 26120 28
20897 26121 26122 28
20898 26121 26123 28
20899 26121 26124 28
20900 26121 26125 28
20901 26126 26127 28
20902 26126 26128 28
20903 26126 26129 28
20904 26126 26130 28
20905 26131 26132 28
20906 26131 26133 28
20907 26131 26134 28
20908 26131 26135 28
20909 26136 26137 28
20910 26136 26138 28
20911 26136 26139 28
20912 26136 26140 28
20913 26141 26142 28
20914 26141 26143 28
20915 26141 26144 28
20916 26141 26145 28
20917 26146 26147 28
20918 26146 26148 28
20919 26146 26149 28
20920 26146 26150 28
20921 26151 26152 28
20922 26151 26153 28
20923 26151 26154 28
20924 26151 26155 28
20925 26156 26157 28
20926 26156 26158 28
20927 26156 26159 28
20928 26156 26160 28
20929 26161 26162 28
20930 26161 26163 28
20931 26161 26164 28
20932 26161 26165 28
20933 26166 26167 28
20934 26166 26168 28
20935 26166 26169 28
20936 26166 26170 28
20937 26171 26172 28
20938 26171 26173 28
20939 26171 26174 28
20940 26171 26175 28
20941 26176 26177 28
20942 26176 26178 28
20943 26176 26179 28
20944 26176 26180 28
20945 26181 26182 28
20946 26181 26183 28
20947 26181 26184 28
20948 26181 26185 28
20949 26186 26187 28
20950 26186 26188 28
20951 26186 26189 28
20952 26186 26190 28
20953 26191 26192 28
20954 26191 26193 28
20955 26191 26194 28
20956 26191 26195 28
20957 26196 26197 28
20958 26196 26198 28
20959 26196 26199 28
20960 26196 26200 28
20961 26201 26202 28
20962 26201 26203 28
20963 26201 26204 28
20964 26201 26205 28
20965 26206 26207 28
20966 26206 26208 28
20967 26206 26209 28
20968 26206 26210 28
20969 26211 26212 28
20970 26211 26213 28
20971 26211 26214 28
20972 26211 26215 28
20973 26216 26217 28
20974 26216 26218 28
20975 26216 26219 28
20976 26216 26220 28
20977 26221 26222 28
20978 26221 26223 28
20979 26221 26224 28
20980 26221 26225 28
20981 26226 26227 28
20982 26226 26228 28
20983 26226 26229 28
20984 26226 26230 28
20985 26231 26232 28
20986 26231 26233 28
20987 26231 26234 28
20988 26231 26235 28
20989 26236 26237 28
20990 26236 26238 28
20991 26236 26239 28
20992 26236 26240 28
20993 26241 26242 28
20994 26241 26243 28
20995 26241 26244 28
20996 26241 26245 28
20997 26246 26247 28
20998 26246 26248 28
20999 26246 26249 28
21000 26246 26250 28
21001 26251 26252 28
21002 26251 26253 28
21003 26251 26254 28
21004 26251 26255 28
21005 26256 26257 28
21006 26256 26258 28
21007 26256 26259 28
21008 26256 26260 28
21009 26261 26262 28
21010 26261 26263 28
21011 26261 26264 28
21012 26261 26265 28
21013 26266 26267 28
21014 26266 26268 28
21015 26266 26269 28
21016 26266 26270 28
21017 26271 26272 28
21018 26271 26273 28
21019 26271 26274 28
21020 26271 26275 28
21021 26276 26277 28
21022 26276 26278 28
21023 26276 26279 28
21024 26276 26280 28
21025 26281 26282 28
21026 26281 26283 28
21027 26281 26284 28
21028 26281 26285 28
21029 26286 26287 28
21030 26286 26288 28
21031 26286 26289 28
21032 26286 26290 28
21033 26291 26292 28
21034 26291 26293 28
21035 26291 26294 28
21036 26291 26295 28
21037 26296 26297 28
21038 26296 26298 28
21039 26296 26299 28
21040 26296 26300 28
21041 26301 26302 28
21042 26301 26303 28
21043 26301 26304 28
21044 26301 26305 28
21045 26306 26307 28
21046 26306 26308 28
21047 26306 26309 28
21048 26306 26310 28
21049 26311 26312 28
21050 26311 26313 28
21051 26311 26314 28
21052 26311 26315 28
21053 26316 26317 28
21054 26316 26318 28
21055 26316 26319 28
21056 26316 26320 28
21057 26321 26322 28
21058 26321 26323 28
21059 26321 26324 28
21060 26321 26325 28
21061 26326 26327 28
21062 26326 26328 28
21063 26326 26329 28
21064 26326 26330 28
21065 26331 26332 28
21066 26331 26333 28
21067 26331 26334 28
21068 26331 26335 28
21069 26336 26337 28
21070 26336 26338 28
21071 26336 26339 28
21072 26336 26340 28
21073 26341 26342 28
21074 26341 26343 28
21075 26341 26344 28
21076 26341 26345 28
21077 26346 26347 28
21078 26346 26348 28
21079 26346 26349 28
21080 26346 26350 28
21081 26351 26352 28
21082 26351 26353 28
21083 26351 26354 28
21084 26351 26355 28
21085 26356 26357 28
21086 26356 26358 28
21087 26356 26359 28
21088 26356 26360 28
21089 26361 26362 28
21090 26361 26363 28
21091 26361 26364 28
21092 26361 26365 28
21093 26366 26367 28
21094 26366 26368 28
21095 26366 26369 28
21096 26366 26370 28
21097 26371 26372 28
21098 26371 26373 28
21099 26371 26374 28
21100 26371 26375 28
21101 26376 26377 28
21102 26376 26378 28
21103 26376 26379 28
21104 26376 26380 28
21105 26381 26382 28
21106 26381 26383 28
21107 26381 26384 28
21108 26381 26385 28
21109 26386 26387 28
21110 26386 26388 28
21111 26386 26389 28
21112 26386 26390 28
21113 26391 26392 28
21114 26391 26393 28
21115 26391 26394 28
21116 26391 26395 28
21117 26396 26397 28
21118 26396 26398 28
21119 26396 26399 28
21120 26396 26400 28
21121 26401 26402 28
21122 26401 26403 28
21123 26401 26404 28
21124 26401 26405 28
21125 26406 26407 28
21126 26406 26408 28
21127 26406 26409 28
21128 26406 26410 28
21129 26411 26412 28
21130 26411 26413 28
21131 26411 26414 28
21132 26411 26415 28
21133 26416 26417 28
21134 26416 26418 28
21135 26416 26419 28
21136 26416 26420 28
21137 26421 26422 28
21138 26421 26423 28
21139 26421 26424 28
21140 26421 26425 28
21141 26426 26427 28
21142 26426 26428 28
21143 26426 26429 28
21144 26426 26430 28
21145 26431 26432 28
21146 26431 26433 28
21147 26431 26434 28
21148 26431 26435 28
21149 26436 26437 28
21150 26436 26438 28
21151 26436 26439 28
21152 26436 26440 28
21153 26441 26442 28
21154 26441 26443 28
21155 26441 26444 28
21156 26441 26445 28
21157 26446 26447 28
21158 26446 26448 28
21159 26446 26449 28
21160 26446 26450 28
21161 26451 26452 28
21162 26451 26453 28
21163 26451 26454 28
21164 26451 26455 28
21165 26456 26457 28
21166 26456 26458 28
21167 26456 26459 28
21168 26456 26460 28
21169 26461 26462 28
21170 26461 26463 28
21171 26461 26464 28
21172 26461 26465 28
21173 26466 26467 28
21174 26466 26468 28
21175 26466 26469 28
21176 26466 26470 28
21177 26471 26472 28
21178 26471 26473 28
21179 26471 26474 28
21180 26471 26475 28
21181 26476 26477 28
21182 26476 26478 28
21183 26476 26479 28
21184 26476 26480 28
21185 26481 26482 28
21186 26481 26483 28
21187 26481 26484 28
21188 26481 26485 28
21189 26486 26487 28
21190 26486 26488 28
21191 26486 26489 28
21192 26486 26490 28
21193 26491 26492 28
21194 26491 26493 28
21195 26491 26494 28
21196 26491 26495 28
21197 26496 26497 28
21198 26496 26498 28
21199 26496 26499 28
21200 26496 26500 28
21201 26501 26502 28
21202 26501 26503 28
21203 26501 26504 28
21204 26501 26505 28
21205 26506 26507 28
21206 26506 26508 28
21207 26506 26509 28
21208 26506 26510 28
21209 26511 26512 28
21210 26511 26513 28
21211 26511 26514 28
21212 26511 26515 28
21213 26516 26517 28
21214 26516 26518 28
21215 26516 26519 28
21216 26516 26520 28
21217 26521 26522 28
21218 26521 26523 28
21219 26521 26524 28
21220 26521 26525 28
21221 26526 26527 28
21222 26526 26528 28
21223 26526 26529 28
21224 26526 26530 28
21225 26531 26532 28
21226 26531 26533 28
21227 26531 26534 28
21228 26531 26535 28
21229 26536 26537 28
21230 26536 26538 28
21231 26536 26539 28
21232 26536 26540 28
21233 26541 26542 28
21234 26541 26543 28
21235 26541 26544 28
21236 26541 26545 28
21237 26546 26547 28
21238 26546 26548 28
21239 26546 26549 28
21240 26546 26550 28
21241 26551 26552 28
21242 26551 26553 28
21243 26551 26554 28
21244 26551 26555 28
21245 26556 26557 28
21246 26556 26558 28
21247 26556 26559 28
21248 26556 26560 28
21249 26561 26562 28
21250 26561 26563 28
21251 26561 26564 28
21252 26561 26565 28
21253 26566 26567 28
21254 26566 26568 28
21255 26566 26569 28
21256 26566 26570 28
21257 26571 26572 28
21258 26571 26573 28
21259 26571 26574 28
21260 26571 26575 28
21261 26576 26577 28
21262 26576 26578 28
21263 26576 26579 28
21264 26576 26580 28
21265 26581 26582 28
21266 26581 26583 28
21267 26581 26584 28
21268 26581 26585 28
21269 26586 26587 28
21270 26586 26588 28
21271 26586 26589 28
21272 26586 26590 28
21273 26591 26592 28
21274 26591 26593 28
21275 26591 26594 28
21276 26591 26595 28
21277 26596 26597 28
21278 26596 26598 28
21279 26596 26599 28
21280 26596 26600 28
21281 26601 26602 28
21282 26601 26603 28
21283 26601 26604 28
21284 26601 26605 28
21285 26606 26607 28
21286 26606 26608 28
21287 26606 26609 28
21288 26606 26610 28
21289 26611 26612 28
21290 26611 26613 28
21291 26611 26614 28
21292 26611 26615 28
21293 26616 26617 28
21294 26616 26618 28
21295 26616 26619 28
21296 26616 26620 28
21297 26621 26622 28
21298 26621 26623 28
21299 26621 26624 28
21300 26621 26625 28
21301 26626 26627 28
21302 26626 26628 28
21303 26626 26629 28
21304 26626 26630 28
21305 26631 26632 28
21306 26631 26633 28
21307 26631 26634 28
21308 26631 26635 28
21309 26636 26637 28
21310 26636 26638 28
21311 26636 26639 28
21312 26636 26640 28
21313 26641 26642 28
21314 26641 26643 28
21315 26641 26644 28
21316 26641 26645 28
21317 26646 26647 28
21318 26646 26648 28
21319 26646 26649 28
21320 26646 26650 28
21321 26651 26652 28
21322 26651 26653 28
21323 26651 26654 28
21324 26651 26655 28
21325 26656 26657 28
21326 26656 26658 28
21327 26656 26659 28
21328 26656 26660 28
21329 26661 26662 28
21330 26661 26663 28
21331 26661 26664 28
21332 26661 26665 28
21333 26666 26667 28
21334 26666 26668 28
21335 26666 26669 28
21336 26666 26670 28
21337 26671 26672 28
21338 26671 26673 28
21339 26671 26674 28
21340 26671 26675 28
21341 26676 26677 28
21342 26676 26678 28
21343 26676 26679 28
21344 26676 26680 28
21345 26681 26682 28
21346 26681 26683 28
21347 26681 26684 28
21348 26681 26685 28
21349 26686 26687 28
21350 26686 26688 28
21351 26686 26689 28
21352 26686 26690 28
21353 26691 26692 28
21354 26691 26693 28
21355 26691 26694 28
21356 26691 26695 28
21357 26696 26697 28
21358 26696 26698 28
21359 26696 26699 28
21360 26696 26700 28
21361 26701 26702 28
21362 26701 26703 28
21363 26701 26704 28
21364 26701 26705 28
21365 26706 26707 28
21366 26706 26708 28
21367 26706 26709 28
21368 26706 26710 28
21369 26711 26712 28
21370 26711 26713 28
21371 26711 26714 28
21372 26711 26715 28
21373 26716 26717 28
21374 26716 26718 28
21375 26716 26719 28
21376 26716 26720 28
21377 26721 26722 28
21378 26721 26723 28
21379 26721 26724 28
21380 26721 26725 28
21381 26726 26727 28
21382 26726 26728 28
21383 26726 26729 28
21384 26726 26730 28
21385 26731 26732 28
21386 26731 26733 28
21387 26731 26734 28
21388 26731 26735 28
21389 26736 26737 28
21390 26736 26738 28
21391 26736 26739 28
21392 26736 26740 28
21393 26741 26742 28
21394 26741 26743 28
21395 26741 26744 28
21396 26741 26745 28
21397 26746 26747 28
21398 26746 26748 28
21399 26746 26749 28
21400 26746 26750 28
21401 26751 26752 28
21402 26751 26753 28
21403 26751 26754 28
21404 26751 26755 28
21405 26756 26757 28
21406 26756 26758 28
21407 26756 26759 28
21408 26756 26760 28
21409 26761 26762 28
21410 26761 26763 28
21411 26761 26764 28
21412 26761 26765 28
21413 26766 26767 28
21414 26766 26768 28
21415 26766 26769 28
21416 26766 26770 28
21417 26771 26772 28
21418 26771 26773 28
21419 26771 26774 28
21420 26771 26775 28
21421 26776 26777 28
21422 26776 26778 28
21423 26776 26779 28
21424 26776 26780 28
21425 26781 26782 28
21426 26781 26783 28
21427 26781 26784 28
21428 26781 26785 28
21429 26786 26787 28
21430 26786 26788 28
21431 26786 26789 28
21432 26786 26790 28
21433 26791 26792 28
21434 26791 26793 28
21435 26791 26794 28
21436 26791 26795 28
21437 26796 26797 28
21438 26796 26798 28
21439 26796 26799 28
21440 26796 26800 28
21441 26801 26802 28
21442 26801 26803 28
21443 26801 26804 28
21444 26801 26805 28
21445 26806 26807 28
21446 26806 26808 28
21447 26806 26809 28
21448 26806 26810 28
21449 26811 26812 28
21450 26811 26813 28
21451 26811 26814 28
21452 26811 26815 28
21453 26816 26817 28
21454 26816 26818 28
21455 26816 26819 28
21456 26816 26820 28
21457 26821 26822 28
21458 26821 26823 28
21459 26821 26824 28
21460 26821 26825 28
21461 26826 26827 28
21462 26826 26828 28
21463 26826 26829 28
21464 26826 26830 28
21465 26831 26832 28
21466 26831 26833 28
21467 26831 26834 28
21468 26831 26835 28
21469 26836 26837 28
21470 26836 26838 28
21471 26836 26839 28
21472 26836 26840 28
21473 26841 26842 28
21474 26841 26843 28
21475 26841 26844 28
21476 26841 26845 28
21477 26846 26847 28
21478 26846 26848 28
21479 26846 26849 28
21480 26846 26850 28
21481 26851 26852 28
21482 26851 26853 28
21483 26851 26854 28
21484 26851 26855 28
21485 26856 26857 28
21486 26856 26858 28
21487 26856 26859 28
21488 26856 26860 28
21489 26861 26862 28
21490 26861 26863 28
21491 26861 26864 28
21492 26861 26865 28
21493 26866 26867 28
21494 26866 26868 28
21495 26866 26869 28
21496 26866 26870 28
21497 26871 26872 28
21498 26871 26873 28
21499 26871 26874 28
21500 26871 26875 28
21501 26876 26877 28
21502 26876 26878 28
21503 26876 26879 28
21504 26876 26880 28
21505 26881 26882 28
21506 26881 26883 28
21507 26881 26884 28
21508 26881 26885 28
21509 26886 26887 28
21510 26886 26888 28
21511 26886 26889 28
21512 26886 26890 28
21513 26891 26892 28
21514 26891 26893 28
21515 26891 26894 28
21516 26891 26895 28
21517 26896 26897 28
21518 26896 26898 28
21519 26896 26899 28
21520 26896 26900 28
21521 26901 26902 28
21522 26901 26903 28
21523 26901 26904 28
21524 26901 26905 28
21525 26906 26907 28
21526 26906 26908 28
21527 26906 26909 28
21528 26906 26910 28
21529 26911 26912 28
21530 26911 26913 28
21531 26911 26914 28
21532 26911 26915 28
21533 26916 26917 28
21534 26916 26918 28
21535 26916 26919 28
21536 26916 26920 28
21537 26921 26922 28
21538 26921 26923 28
21539 26921 26924 28
21540 26921 26925 28
21541 26926 26927 28
21542 26926 26928 28
21543 26926 26929 28
21544 26926 26930 28
21545 26931 26932 28
21546 26931 26933 28
21547 26931 26934 28
21548 26931 26935 28
21549 26936 26937 28
21550 26936 26938 28
21551 26936 26939 28
21552 26936 26940 28
21553 26941 26942 28
21554 26941 26943 28
21555 26941 26944 28
21556 26941 26945 28
21557 26946 26947 28
21558 26946 26948 28
21559 26946 26949 28
21560 26946 26950 28
21561 26951 26952 28
21562 26951 26953 28
21563 26951 26954 28
21564 26951 26955 28
21565 26956 26957 28
21566 26956 26958 28
21567 26956 26959 28
21568 26956 26960 28
21569 26961 26962 28
21570 26961 26963 28
21571 26961 26964 28
21572 26961 26965 28
21573 26966 26967 28
21574 26966 26968 28
21575 26966 26969 28
21576 26966 26970 28
21577 26971 26972 28
21578 26971 26973 28
21579 26971 26974 28
21580 26971 26975 28
21581 26976 26977 28
21582 26976 26978 28
21583 26976 26979 28
21584 26976 26980 28
21585 26981 26982 28
21586 26981 26983 28
21587 26981 26984 28
21588 26981 26985 28
21589 26986 26987 28
21590 26986 26988 28
21591 26986 26989 28
21592 26986 26990 28
21593 26991 26992 28
21594 26991 26993 28
21595 26991 26994 28
21596 26991 26995 28
21597 26996 26997 28
21598 26996 26998 28
21599 26996 26999 28
21600 26996 27000 28
21601 27001 27002 28
21602 27001 27003 28
21603 27001 27004 28
21604 27001 27005 28
21605 27006 27007 28
21606 27006 27008 28
21607 27006 27009 28
21608 27006 27010 28
21609 27011 27012 28
21610 27011 27013 28
21611 27011 27014 28
21612 27011 27015 28
21613 27016 27017 28
21614 27016 27018 28
21615 27016 27019 28
21616 27016 27020 28
21617 27021 27022 28
21618 27021 27023 28
21619 27021 27024 28
21620 27021 27025 28
21621 27026 27027 28
21622 27026 27028 28
21623 27026 27029 28
21624 27026 27030 28
21625 27031 27032 28
21626 27031 27033 28
21627 27031 27034 28
21628 27031 27035 28
21629 27036 27037 28
21630 27036 27038 28
21631 27036 27039 28
21632 27036 27040 28
21633 27041 27042 28
21634 27041 27043 28
21635 27041 27044 28
21636 27041 27045 28
21637 27046 27047 28
21638 27046 27048 28
21639 27046 27049 28
21640 27046 27050 28
21641 27051 27052 28
21642 27051 27053 28
21643 27051 27054 28
21644 27051 27055 28
21645 27056 27057 28
21646 27056 27058 28
21647 27056 27059 28
21648 27056 27060 28
21649 27061 27062 28
21650 27061 27063 28
21651 27061 27064 28
21652 27061 27065 28
21653 27066 27067 28
21654 27066 27068 28
21655 27066 27069 28
21656 27066 27070 28
21657 27071 27072 28
21658 27071 27073 28
21659 27071 27074 28
21660 27071 27075 28
21661 27076 27077 28
21662 27076 27078 28
21663 27076 27079 28
21664 27076 27080 28
21665 27081 27082 28
21666 27081 27083 28
21667 27081 27084 28
21668 27081 27085 28
21669 27086 27087 28
21670 27086 27088 28
21671 27086 27089 28
21672 27086 27090 28
21673 27091 27092 28
21674 27091 27093 28
21675 27091 27094 28
21676 27091 27095 28
21677 27096 27097 28
21678 27096 27098 28
21679 27096 27099 28
21680 27096 27100 28
21681 27101 27102 28
21682 27101 27103 28
21683 27101 27104 28
21684 27101 27105 28
21685 27106 27107 28
21686 27106 27108 28
21687 27106 27109 28
21688 27106 27110 28
21689 27111 27112 28
21690 27111 27113 28
21691 27111 27114 28
21692 27111 27115 28
21693 27116 27117 28
21694 27116 27118 28
21695 27116 27119 28
21696 27116 27120 28
21697 27121 27122 28
21698 27121 27123 28
21699 27121 27124 28
21700 27121 27125 28
21701 27126 27127 28
21702 27126 27128 28
21703 27126 27129 28
21704 27126 27130 28
21705 27131 27132 28
21706 27131 27133 28
21707 27131 27134 28
21708 27131 27135 28
21709 27136 27137 28
21710 27136 27138 28
21711 27136 27139 28
21712 27136 27140 28
21713 27141 27142 28
21714 27141 27143 28
21715 27141 27144 28
21716 27141 27145 28
21717 27146 27147 28
21718 27146 27148 28
21719 27146 27149 28
21720 27146 27150 28
21721 27151 27152 28
21722 27151 27153 28
21723 27151 27154 28
21724 27151 27155 28
21725 27156 27157 28
21726 27156 27158 28
21727 27156 27159 28
21728 27156 27160 28
21729 27161 27162 28
21730 27161 27163 28
21731 27161 27164 28
21732 27161 27165 28
21733 27166 27167 28
21734 27166 27168 28
21735 27166 27169 28
21736 27166 27170 28
21737 27171 27172 28
21738 27171 27173 28
21739 27171 27174 28
21740 27171 27175 28
21741 27176 27177 28
21742 27176 27178 28
21743 27176 27179 28
21744 27176 27180 28
21745 27181 27182 28
21746 27181 27183 28
21747 27181 27184 28
21748 27181 27185 28
21749 27186 27187 28
21750 27186 27188 28
21751 27186 27189 28
21752 27186 27190 28
21753 27191 27192 28
21754 27191 27193 28
21755 27191 27194 28
21756 27191 27195 28
21757 27196 27197 28
21758 27196 27198 28
21759 27196 27199 28
21760 27196 27200 28
21761 27201 27202 28
21762 27201 27203 28
21763 27201 27204 28
21764 27201 27205 28
21765 27206 27207 28
21766 27206 27208 28
21767 27206 27209 28
21768 27206 27210 28
21769 27211 27212 28
21770 27211 27213 28
21771 27211 27214 28
21772 27211 27215 28
21773 27216 27217 28
21774 27216 27218 28
21775 27216 27219 28
21776 27216 27220 28
21777 27221 27222 28
21778 27221 27223 28
21779 27221 27224 28
21780 27221 27225 28
21781 27226 27227 28
21782 27226 27228 28
21783 27226 27229 28
21784 27226 27230 28
21785 27231 27232 28
21786 27231 27233 28
21787 27231 27234 28
21788 27231 27235 28
21789 27236 27237 28
21790 27236 27238 28
21791 27236 27239 28
21792 27236 27240 28
21793 27241 27242 28
21794 27241 27243 28
21795 27241 27244 28
21796 27241 27245 28
21797 27246 27247 28
21798 27246 27248 28
21799 27246 27249 28
21800 27246 27250 28
21801 27251 27252 28
21802 27251 27253 28
21803 27251 27254 28
21804 27251 27255 28
21805 27256 27257 28
21806 27256 27258 28
21807 27256 27259 28
21808 27256 27260 28
21809 27261 27262 28
21810 27261 27263 28
21811 27261 27264 28
21812 27261 27265 28
21813 27266 27267 28
21814 27266 27268 28
21815 27266 27269 28
21816 27266 27270 28
21817 27271 27272 28
21818 27271 27273 28
21819 27271 27274 28
21820 27271 27275 28
21821 27276 27277 28
21822 27276 27278 28
21823 27276 27279 28
21824 27276 27280 28
21825 27281 27282 28
21826 27281 27283 28
21827 27281 27284 28
21828 27281 27285 28
21829 27286 27287 28
21830 27286 27288 28
21831 27286 27289 28
21832 27286 27290 28
21833 27291 27292 28
21834 27291 27293 28
21835 27291 27294 28
21836 27291 27295 28
21837 27296 27297 28
21838 27296 27298 28
21839 27296 27299 28
21840 27296 27300 28
21841 27301 27302 28
21842 27301 27303 28
21843 27301 27304 28
21844 27301 27305 28
21845 27306 27307 28
21846 27306 27308 28
21847 27306 27309 28
21848 27306 27310 28
21849 27311 27312 28
21850 27311 27313 28
21851 27311 27314 28
21852 27311 27315 28
21853 27316 27317 28
21854 27316 27318 28
21855 27316 27319 28
21856 27316 27320 28
21857 27321 27322 28
21858 27321 27323 28
21859 27321 27324 28
21860 27321 27325 28
21861 27326 27327 28
21862 27326 27328 28
21863 27326 27329 28
21864 27326 27330 28
21865 27331 27332 28
21866 27331 27333 28
21867 27331 27334 28
21868 27331 27335 28
21869 27336 27337 28
21870 27336 27338 28
21871 27336 27339 28
21872 27336 27340 28
21873 27341 27342 28
21874 27341 27343 28
21875 27341 27344 28
21876 27341 27345 28
21877 27346 27347 28
21878 27346 27348 28
21879 27346 27349 28
21880 27346 27350 28
21881 27351 27352 28
21882 27351 27353 28
21883 27351 27354 28
21884 27351 27355 28
21885 27356 27357 28
21886 27356 27358 28
21887 27356 27359 28
21888 27356 27360 28
21889 27361 27362 28
21890 27361 27363 28
21891 27361 27364 28
21892 27361 27365 28
21893 27366 27367 28
21894 27366 27368 28
21895 27366 27369 28
21896 27366 27370 28
21897 27371 27372 28
21898 27371 27373 28
21899 27371 27374 28
21900 27371 27375 28
21901 27376 27377 28
21902 27376 27378 28
21903 27376 27379 28
21904 27376 27380 28
21905 27381 27382 28
21906 27381 27383 28
21907 27381 27384 28
21908 27381 27385 28
21909 27386 27387 28
21910 27386 27388 28
21911 27386 27389 28
21912 27386 27390 28
21913 27391 27392 28
21914 27391 27393 28
21915 27391 27394 28
21916 27391 27395 28
21917 27396 27397 28
21918 27396 27398 28
21919 27396 27399 28
21920 27396 27400 28
21921 27401 27402 28
21922 27401 27403 28
21923 27401 27404 28
21924 27401 27405 28
21925 27406 27407 28
21926 27406 27408 28
21927 27406 27409 28
21928 27406 27410 28
21929 27411 27412 28
21930 27411 27413 28
21931 27411 27414 28
21932 27411 27415 28
21933 27416 27417 28
21934 27416 27418 28
21935 27416 27419 28
21936 27416 27420 28
21937 27421 27422 28
21938 27421 27423 28
21939 27421 27424 28
21940 27421 27425 28
21941 27426 27427 28
21942 27426 27428 28
21943 27426 27429 28
21944 27426 27430 28
21945 27431 27432 28
21946 27431 27433 28
21947 27431 27434 28
21948 27431 27435 28
21949 27436 27437 28
21950 27436 27438 28
21951 27436 27439 28
21952 27436 27440 28
21953 27441 27442 28
21954 27441 27443 28
21955 27441 27444 28
21956 27441 27445 28
21957 27446 27447 28
21958 27446 27448 28
21959 27446 27449 28
21960 27446 27450 28
21961 27451 27452 28
21962 27451 27453 28
21963 27451 27454 28
21964 27451 27455 28
21965 27456 27457 28
21966 27456 27458 28
21967 27456 27459 28
21968 27456 27460 28
21969 27461 27462 28
21970 27461 27463 28
21971 27461 27464 28
21972 27461 27465 28
21973 27466 27467 28
21974 27466 27468 28
21975 27466 27469 28
21976 27466 27470 28
21977 27471 27472 28
21978 27471 27473 28
21979 27471 27474 28
21980 27471 27475 28
21981 27476 27477 28
21982 27476 27478 28
21983 27476 27479 28
21984 27476 27480 28
21985 27481 27482 28
21986 27481 27483 28
21987 27481 27484 28
21988 27481 27485 28
21989 27486 27487 28
21990 27486 27488 28
21991 27486 27489 28
21992 27486 27490 28
21993 27491 27492 28
21994 27491 27493 28
21995 27491 27494 28
21996 27491 27495 28
21997 27496 27497 28
21998 27496 27498 28
21999 27496 27499 28
22000 27496 27500 28
22001 27501 27502 28
22002 27501 27503 28
22003 27501 27504 28
22004 27501 27505 28
22005 27506 27507 28
22006 27506 27508 28
22007 27506 27509 28
22008 27506 27510 28
22009 27511 27512 28
22010 27511 27513 28
22011 27511 27514 28
22012 27511 27515 28
22013 27516 27517 28
22014 27516 27518 28
22015 27516 27519 28
22016 27516 27520 28
22017 27521 27522 28
22018 27521 27523 28
22019 27521 27524 28
22020 27521 27525 28
22021 27526 27527 28
22022 27526 27528 28
22023 27526 27529 28
22024 27526 27530 28
22025 27531 27532 28
22026 27531 27533 28
22027 27531 27534 28
22028 27531 27535 28
22029 27536 27537 28
22030 27536 27538 28
22031 27536 27539 28
22032 27536 27540 28
22033 27541 27542 28
22034 27541 27543 28
22035 27541 27544 28
22036 27541 27545 28
22037 27546 27547 28
22038 27546 27548 28
22039 27546 27549 28
22040 27546 27550 28
22041 27551 27552 28
22042 27551 27553 28
22043 27551 27554 28
22044 27551 27555 28
22045 27556 27557 28
22046 27556 27558 28
22047 27556 27559 28
22048 27556 27560 28
22049 27561 27562 28
22050 27561 27563 28
22051 27561 27564 28
22052 27561 27565 28
22053 27566 27567 28
22054 27566 27568 28
22055 27566 27569 28
22056 27566 27570 28
22057 27571 27572 28
22058 27571 27573 28
22059 27571 27574 28
22060 27571 27575 28
22061 27576 27577 28
22062 27576 27578 28
22063 27576 27579 28
22064 27576 27580 28
22065 27581 27582 28
22066 27581 27583 28
22067 27581 27584 28
22068 27581 27585 28
22069 27586 27587 28
22070 27586 27588 28
22071 27586 27589 28
22072 27586 27590 28
22073 27591 27592 28
22074 27591 27593 28
22075 27591 27594 28
22076 27591 27595 28
22077 27596 27597 28
22078 27596 27598 28
22079 27596 27599 28
22080 27596 27600 28
22081 27601 27602 28
22082 27601 27603 28
22083 27601 27604 28
22084 27601 27605 28
22085 27606 27607 28
22086 27606 27608 28
22087 27606 27609 28
22088 27606 27610 28
22089 27611 27612 28
22090 27611 27613 28
22091 27611 27614 28
22092 27611 27615 28
22093 27616 27617 28
22094 27616 27618 28
22095 27616 27619 28
22096 27616 27620 28
22097 27621 27622 28
22098 27621 27623 28
22099 27621 27624 28
22100 27621 27625 28
22101 27626 27627 28
22102 27626 27628 28
22103 27626 27629 28
22104 27626 27630 28
22105 27631 27632 28
22106 27631 27633 28
22107 27631 27634 28
22108 27631 27635 28
22109 27636 27637 28
22110 27636 27638 28
22111 27636 27639 28
22112 27636 27640 28
22113 27641 27642 28
22114 27641 27643 28
22115 27641 27644 28
22116 27641 27645 28
22117 27646 27647 28
22118 27646 27648 28
22119 27646 27649 28
22120 27646 27650 28
22121 27651 27652 28
22122 27651 27653 28
22123 27651 27654 28
22124 27651 27655 28
22125 27656 27657 28
22126 27656 27658 28
22127 27656 27659 28
22128 27656 27660 28
22129 27661 27662 28
22130 27661 27663 28
22131 27661 27664 28
22132 27661 27665 28
22133 27666 27667 28
22134 27666 27668 28
22135 27666 27669 28
22136 27666 27670 28
22137 27671 27672 28
22138 27671 27673 28
22139 27671 27674 28
22140 27671 27675 28
22141 27676 27677 28
22142 27676 27678 28
22143 27676 27679 28
22144 27676 27680 28
22145 27681 27682 28
22146 27681 27683 28
22147 27681 27684 28
22148 27681 27685 28
22149 27686 27687 28
22150 27686 27688 28
22151 27686 27689 28
22152 27686 27690 28
22153 27691 27692 28
22154 27691 27693 28
22155 27691 27694 28
22156 27691 27695 28
22157 27696 27697 28
22158 27696 27698 28
22159 27696 27699 28
22160 27696 27700 28
22161 27701 27702 28
22162 27701 27703 28
22163 27701 27704 28
22164 27701 27705 28
22165 27706 27707 28
22166 27706 27708 28
22167 27706 27709 28
22168 27706 27710 28
22169 27711 27712 28
22170 27711 27713 28
22171 27711 27714 28
22172 27711 27715 28
22173 27716 27717 28
22174 27716 27718 28
22175 27716 27719 28
22176 27716 27720 28
22177 27721 27722 28
22178 27721 27723 28
22179 27721 27724 28
22180 27721 27725 28
22181 27726 27727 28
22182 27726 27728 28
22183 27726 27729 28
22184 27726 27730 28
22185 27731 27732 28
22186 27731 27733 28
22187 27731 27734 28
22188 27731 27735 28
22189 27736 27737 28
22190 27736 27738 28
22191 27736 27739 28
22192 27736 27740 28
22193 27741 27742 28
22194 27741 27743 28
22195 27741 27744 28
22196 27741 27745 28
22197 27746 27747 28
22198 27746 27748 28
22199 27746 27749 28
22200 27746 27750 28
22201 27751 27752 28
22202 27751 27753 28
22203 27751 27754 28
22204 27751 27755 28
22205 27756 27757 28
22206 27756 27758 28
22207 27756 27759 28
22208 27756 27760 28
22209 27761 27762 28
22210 27761 27763 28
22211 27761 27764 28
22212 27761 27765 28
22213 27766 27767 28
22214 27766 27768 28
22215 27766 27769 28
22216 27766 27770 28
22217 27771 27772 28
22218 27771 27773 28
22219 27771 27774 28
22220 27771 27775 28
22221 27776 27777 28
22222 27776 27778 28
22223 27776 27779 28
22224 27776 27780 28
22225 27781 27782 28
22226 27781 27783 28
22227 27781 27784 28
22228 27781 27785 28
22229 27786 27787 28
22230 27786 27788 28
22231 27786 27789 28
22232 27786 27790 28
22233 27791 27792 28
22234 27791 27793 28
22235 27791 27794 28
22236 27791 27795 28
22237 27796 27797 28
22238 27796 27798 28
22239 27796 27799 28
22240 27796 27800 28
22241 27801 27802 28
22242 27801 27803 28
22243 27801 27804 28
22244 27801 27805 28
22245 27806 27807 28
22246 27806 27808 28
22247 27806 27809 28
22248 27806 27810 28
22249 27811 27812 28
22250 27811 27813 28
22251 27811 27814 28
22252 27811 27815 28
22253 27816 27817 28
22254 27816 27818 28
22255 27816 27819 28
22256 27816 27820 28
22257 27821 27822 28
22258 27821 27823 28
22259 27821 27824 28
22260 27821 27825 28
22261 27826 27827 28
22262 27826 27828 28
22263 27826 27829 28
22264 27826 27830 28
22265 27831 27832 28
22266 27831 27833 28
22267 27831 27834 28
22268 27831 27835 28
22269 27836 27837 28
22270 27836 27838 28
22271 27836 27839 28
22272 27836 27840 28
22273 27841 27842 28
22274 27841 27843 28
22275 27841 27844 28
22276 27841 27845 28
22277 27846 27847 28
22278 27846 27848 28
22279 27846 27849 28
22280 27846 27850 28
22281 27851 27852 28
22282 27851 27853 28
22283 27851 27854 28
22284 27851 27855 28
22285 27856 27857 28
22286 27856 27858 28
22287 27856 27859 28
22288 27856 27860 28
22289 27861 27862 28
22290 27861 27863 28
22291 27861 27864 28
22292 27861 27865 28
22293 27866 27867 28
22294 27866 27868 28
22295 27866 27869 28
22296 27866 27870 28
22297 27871 27872 28
22298 27871 27873 28
22299 27871 27874 28
22300 27871 27875 28
22301 27876 27877 28
22302 27876 27878 28
22303 27876 27879 28
22304 27876 27880 28
22305 27881 27882 28
22306 27881 27883 28
22307 27881 27884 28
22308 27881 27885 28
22309 27886 27887 28
22310 27886 27888 28
22311 27886 27889 28
22312 27886 27890 28
22313 27891 27892 28
22314 27891 27893 28
22315 27891 27894 28
22316 27891 27895 28
22317 27896 27897 28
22318 27896 27898 28
22319 27896 27899 28
22320 27896 27900 28
22321 27901 27902 28
22322 27901 27903 28
22323 27901 27904 28
22324 27901 27905 28
22325 27906 27907 28
22326 27906 27908 28
22327 27906 27909 28
22328 27906 27910 28
22329 27911 27912 28
22330 27911 27913 28
22331 27911 27914 28
22332 27911 27915 28
22333 27916 27917 28
22334 27916 27918 28
22335 27916 27919 28
22336 27916 27920 28
22337 27921 27922 28
22338 27921 27923 28
22339 27921 27924 28
22340 27921 27925 28
22341 27926 27927 28
22342 27926 27928 28
22343 27926 27929 28
22344 27926 27930 28
22345 27931 27932 28
22346 27931 27933 28
22347 27931 27934 28
22348 27931 27935 28
22349 27936 27937 28
22350 27936 27938 28
22351 27936 27939 28
22352 27936 27940 28
22353 27941 27942 28
22354 27941 27943 28
22355 27941 27944 28
22356 27941 27945 28
22357 27946 27947 28
22358 27946 27948 28
22359 27946 27949 28
22360 27946 27950 28
22361 27951 27952 28
22362 27951 27953 28
22363 27951 27954 28
22364 27951 27955 28
22365 27956 27957 28
22366 27956 27958 28
22367 27956 27959 28
22368 27956 27960 28
22369 27961 27962 28
22370 27961 27963 28
22371 27961 27964 28
22372 27961 27965 28
22373 27966 27967 28
22374 27966 27968 28
22375 27966 27969 28
22376 27966 27970 28
22377 27971 27972 28
22378 27971 27973 28
22379 27971 27974 28
22380 27971 27975 28
22381 27976 27977 28
22382 27976 27978 28
22383 27976 27979 28
22384 27976 27980 28
22385 27981 27982 28
22386 27981 27983 28
22387 27981 27984 28
22388 27981 27985 28
22389 27986 27987 28
22390 27986 27988 28
22391 27986 27989 28
22392 27986 27990 28
22393 27991 27992 28
22394 27991 27993 28
22395 27991 27994 28
22396 27991 27995 28
22397 27996 27997 28
22398 27996 27998 28
22399 27996 27999 28
22400 27996 28000 28
22401 28001 28002 28
22402 28001 28003 28
22403 28001 28004 28
22404 28001 28005 28
22405 28006 28007 28
22406 28006 28008 28
22407 28006 28009 28
22408 28006 28010 28
22409 28011 28012 28
22410 28011 28013 28
22411 28011 28014 28
22412 28011 28015 28
22413 28016 28017 28
22414 28016 28018 28
22415 28016 28019 28
22416 28016 28020 28
22417 28021 28022 28
22418 28021 28023 28
22419 28021 28024 28
22420 28021 28025 28
22421 28026 28027 28
22422 28026 28028 28
22423 28026 28029 28
22424 28026 28030 28
22425 28031 28032 28
22426 28031 28033 28
22427 28031 28034 28
22428 28031 28035 28
22429 28036 28037 28
22430 28036 28038 28
22431 28036 28039 28
22432 28036 28040 28
22433 28041 28042 28
22434 28041 28043 28
22435 28041 28044 28
22436 28041 28045 28
22437 28046 28047 28
22438 28046 28048 28
22439 28046 28049 28
22440 28046 28050 28
22441 28051 28052 28
22442 28051 28053 28
22443 28051 28054 28
22444 28051 28055 28
22445 28056 28057 28
22446 28056 28058 28
22447 28056 28059 28
22448 28056 28060 28
22449 28061 28062 28
22450 28061 28063 28
22451 28061 28064 28
22452 28061 28065 28
22453 28066 28067 28
22454 28066 28068 28
22455 28066 28069 28
22456 28066 28070 28
22457 28071 28072 28
22458 28071 28073 28
22459 28071 28074 28
22460 28071 28075 28
22461 28076 28077 28
22462 28076 28078 28
22463 28076 28079 28
22464 28076 28080 28
22465 28081 28082 28
22466 28081 28083 28
22467 28081 28084 28
22468 28081 28085 28
22469 28086 28087 28
22470 28086 28088 28
22471 28086 28089 28
22472 28086 28090 28
22473 28091 28092 28
22474 28091 28093 28
22475 28091 28094 28
22476 28091 28095 28
22477 28096 28097 28
22478 28096 28098 28
22479 28096 28099 28
22480 28096 28100 28
22481 28101 28102 28
22482 28101 28103 28
22483 28101 28104 28
22484 28101 28105 28
22485 28106 28107 28
22486 28106 28108 28
22487 28106 28109 28
22488 28106 28110 28
22489 28111 28112 28
22490 28111 28113 28
22491 28111 28114 28
22492 28111 28115 28
22493 28116 28117 28
22494 28116 28118 28
22495 28116 28119 28
22496 28116 28120 28
22497 28121 28122 28
22498 28121 28123 28
22499 28121 28124 28
22500 28121 28125 28
22501 28126 28127 28
22502 28126 28128 28
22503 28126 28129 28
22504 28126 28130 28
22505 28131 28132 28
22506 28131 28133 28
22507 28131 28134 28
22508 28131 28135 28
22509 28136 28137 28
22510 28136 28138 28
22511 28136 28139 28
22512 28136 28140 28
22513 28141 28142 28
22514 28141 28143 28
22515 28141 28144 28
22516 28141 28145 28
22517 28146 28147 28
22518 28146 28148 28
22519 28146 28149 28
22520 28146 28150 28
22521 28151 28152 28
22522 28151 28153 28
22523 28151 28154 28
22524 28151 28155 28
22525 28156 28157 28
22526 28156 28158 28
22527 28156 28159 28
22528 28156 28160 28
22529 28161 28162 28
22530 28161 28163 28
22531 28161 28164 28
22532 28161 28165 28
22533 28166 28167 28
22534 28166 28168 28
22535 28166 28169 28
22536 28166 28170 28
22537 28171 28172 28
22538 28171 28173 28
22539 28171 28174 28
22540 28171 28175 28
22541 28176 28177 28
22542 28176 28178 28
22543 28176 28179 28
22544 28176 28180 28
22545 28181 28182 28
22546 28181 28183 28
22547 28181 28184 28
22548 28181 28185 28
22549 28186 28187 28
22550 28186 28188 28
22551 28186 28189 28
22552 28186 28190 28
22553 28191 28192 28
22554 28191 28193 28
22555 28191 28194 28
22556 28191 28195 28
22557 28196 28197 28
22558 28196 28198 28
22559 28196 28199 28
22560 28196 28200 28
22561 28201 28202 28
22562 28201 28203 28
22563 28201 28204 28
22564 28201 28205 28
22565 28206 28207 28
22566 28206 28208 28
22567 28206 28209 28
22568 28206 28210 28
22569 28211 28212 28
22570 28211 28213 28
22571 28211 28214 28
22572 28211 28215 28
22573 28216 28217 28
22574 28216 28218 28
22575 28216 28219 28
22576 28216 28220 28
22577 28221 28222 28
22578 28221 28223 28
22579 28221 28224 28
22580 28221 28225 28
22581 28226 28227 28
22582 28226 28228 28
22583 28226 28229 28
22584 28226 28230 28
22585 28231 28232 28
22586 28231 28233 28
22587 28231 28234 28
22588 28231 28235 28
22589 28236 28237 28
22590 28236 28238 28
22591 28236 28239 28
22592 28236 28240 28
22593 28241 28242 28
22594 28241 28243 28
22595 28241 28244 28
22596 28241 28245 28
22597 28246 28247 28
22598 28246 28248 28
22599 28246 28249 28
22600 28246 28250 28
22601 28251 28252 28
22602 28251 28253 28
22603 28251 28254 28
22604 28251 28255 28
22605 28256 28257 28
22606 28256 28258 28
22607 28256 28259 28
22608 28256 28260 28
22609 28261 28262 28
22610 28261 28263 28
22611 28261 28264 28
22612 28261 28265 28
22613 28266 28267 28
22614 28266 28268 28
22615 28266 28269 28
22616 28266 28270 28
22617 28271 28272 28
22618 28271 28273 28
22619 28271 28274 28
22620 28271 28275 28
22621 28276 28277 28
22622 28276 28278 28
22623 28276 28279 28
22624 28276 28280 28
22625 28281 28282 28
22626 28281 28283 28
22627 28281 28284 28
22628 28281 28285 28
22629 28286 28287 28
22630 28286 28288 28
22631 28286 28289 28
22632 28286 28290 28
22633 28291 28292 28
22634 28291 28293 28
22635 28291 28294 28
22636 28291 28295 28
22637 28296 28297 28
22638 28296 28298 28
22639 28296 28299 28
22640 28296 28300 28
22641 28301 28302 28
22642 28301 28303 28
22643 28301 28304 28
22644 28301 28305 28
22645 28306 28307 28
22646 28306 28308 28
22647 28306 28309 28
22648 28306 28310 28
22649 28311 28312 28
22650 28311 28313 28
22651 28311 28314 28
22652 28311 28315 28
22653 28316 28317 28
22654 28316 28318 28
22655 28316 28319 28
22656 28316 28320 28
22657 28321 28322 28
22658 28321 28323 28
22659 28321 28324 28
22660 28321 28325 28
22661 28326 28327 28
22662 28326 28328 28
22663 28326 28329 28
22664 28326 28330 28
22665 28331 28332 28
22666 28331 28333 28
22667 28331 28334 28
22668 28331 28335 28
22669 28336 28337 28
22670 28336 28338 28
22671 28336 28339 28
22672 28336 28340 28
22673 28341 28342 28
22674 28341 28343 28
22675 28341 28344 28
22676 28341 28345 28
22677 28346 28347 28
22678 28346 28348 28
22679 28346 28349 28
22680 28346 28350 28
22681 28351 28352 28
22682 28351 28353 28
22683 28351 28354 28
22684 28351 28355 28
22685 28356 28357 28
22686 28356 28358 28
22687 28356 28359 28
22688 28356 28360 28
22689 28361 28362 28
22690 28361 28363 28
22691 28361 28364 28
22692 28361 28365 28
22693 28366 28367 28
22694 28366 28368 28
22695 28366 28369 28
22696 28366 28370 28
22697 28371 28372 28
22698 28371 28373 28
22699 28371 28374 28
22700 28371 28375 28
22701 28376 28377 28
22702 28376 28378 28
22703 28376 28379 28
22704 28376 28380 28
22705 28381 28382 28
22706 28381 28383 28
22707 28381 28384 28
22708 28381 28385 28
22709 28386 28387 28
22710 28386 28388 28
22711 28386 28389 28
22712 28386 28390 28
22713 28391 28392 28
22714 28391 28393 28
22715 28391 28394 28
22716 28391 28395 28
22717 28396 28397 28
22718 28396 28398 28
22719 28396 28399 28
22720 28396 28400 28
22721 28401 28402 28
22722 28401 28403 28
22723 28401 28404 28
22724 28401 28405 28
22725 28406 28407 28
22726 28406 28408 28
22727 28406 28409 28
22728 28406 28410 28
22729 28411 28412 28
22730 28411 28413 28
22731 28411 28414 28
22732 28411 28415 28
22733 28416 28417 28
22734 28416 28418 28
22735 28416 28419 28
22736 28416 28420 28
22737 28421 28422 28
22738 28421 28423 28
22739 28421 28424 28
22740 28421 28425 28
22741 28426 28427 28
22742 28426 28428 28
22743 28426 28429 28
22744 28426 28430 28
22745 28431 28432 28
22746 28431 28433 28
22747 28431 28434 28
22748 28431 28435 28
22749 28436 28437 28
22750 28436 28438 28
22751 28436 28439 28
22752 28436 28440 28
22753 28441 28442 28
22754 28441 28443 28
22755 28441 28444 28
22756 28441 28445 28
22757 28446 28447 28
22758 28446 28448 28
22759 28446 28449 28
22760 28446 28450 28
22761 28451 28452 28
22762 28451 28453 28
22763 28451 28454 28
22764 28451 28455 28
22765 28456 28457 28
22766 28456 28458 28
22767 28456 28459 28
22768 28456 28460 28
22769 28461 28462 28
22770 28461 28463 28
22771 28461 28464 28
22772 28461 28465 28
22773 28466 28467 28
22774 28466 28468 28
22775 28466 28469 28
22776 28466 28470 28
22777 28471 28472 28
22778 28471 28473 28
22779 28471 28474 28
22780 28471 28475 28
22781 28476 28477 28
22782 28476 28478 28
22783 28476 28479 28
22784 28476 28480 28
22785 28481 28482 28
22786 28481 28483 28
22787 28481 28484 28
22788 28481 28485 28
22789 28486 28487 28
22790 28486 28488 28
22791 28486 28489 28
22792 28486 28490 28
22793 28491 28492 28
22794 28491 28493 28
22795 28491 28494 28
22796 28491 28495 28
22797 28496 28497 28
22798 28496 28498 28
22799 28496 28499 28
22800 28496 28500 28
22801 28501 28502 28
22802 28501 28503 28
22803 28501 28504 28
22804 28501 28505 28
22805 28506 28507 28
22806 28506 28508 28
22807 28506 28509 28
22808 28506 28510 28
22809 28511 28512 28
22810 28511 28513 28
22811 28511 28514 28
22812 28511 28515 28
22813 28516 28517 28
22814 28516 28518 28
22815 28516 28519 28
22816 28516 28520 28
22817 28521 28522 28
22818 28521 28523 28
22819 28521 28524 28
22820 28521 28525 28
22821 28526 28527 28
22822 28526 28528 28
22823 28526 28529 28
22824 28526 28530 28
22825 28531 28532 28
22826 28531 28533 28
22827 28531 28534 28
22828 28531 28535 28
22829 28536 28537 28
22830 28536 28538 28
22831 28536 28539 28
22832 28536 28540 28
22833 28541 28542 28
22834 28541 28543 28
22835 28541 28544 28
22836 28541 28545 28
22837 28546 28547 28
22838 28546 28548 28
22839 28546 28549 28
22840 28546 28550 28
22841 28551 28552 28
22842 28551 28553 28
22843 28551 28554 28
22844 28551 28555 28
22845 28556 28557 28
22846 28556 28558 28
22847 28556 28559 28
22848 28556 28560 28
22849 28561 28562 28
22850 28561 28563 28
22851 28561 28564 28
22852 28561 28565 28
22853 28566 28567 28
22854 28566 28568 28
22855 28566 28569 28
22856 28566 28570 28
22857 28571 28572 28
22858 28571 28573 28
22859 28571 28574 28
22860 28571 28575 28
22861 28576 28577 28
22862 28576 28578 28
22863 28576 28579 28
22864 28576 28580 28
22865 28581 28582 28
22866 28581 28583 28
22867 28581 28584 28
22868 28581 28585 28
22869 28586 28587 28
22870 28586 28588 28
22871 28586 28589 28
22872 28586 28590 28
22873 28591 28592 28
22874 28591 28593 28
22875 28591 28594 28
22876 28591 28595 28
22877 28596 28597 28
22878 28596 28598 28
22879 28596 28599 28
22880 28596 28600 28
22881 28601 28602 28
22882 28601 28603 28
22883 28601 28604 28
22884 28601 28605 28
22885 28606 28607 28
22886 28606 28608 28
22887 28606 28609 28
22888 28606 28610 28
22889 28611 28612 28
22890 28611 28613 28
22891 28611 28614 28
22892 28611 28615 28
22893 28616 28617 28
22894 28616 28618 28
22895 28616 28619 28
22896 28616 28620 28
22897 28621 28622 28
22898 28621 28623 28
22899 28621 28624 28
22900 28621 28625 28
22901 28626 28627 28
22902 28626 28628 28
22903 28626 28629 28
22904 28626 28630 28
22905 28631 28632 28
22906 28631 28633 28
22907 28631 28634 28
22908 28631 28635 28
22909 28636 28637 28
22910 28636 28638 28
22911 28636 28639 28
22912 28636 28640 28
22913 28641 28642 28
22914 28641 28643 28
22915 28641 28644 28
22916 28641 28645 28
22917 28646 28647 28
22918 28646 28648 28
22919 28646 28649 28
22920 28646 28650 28
22921 28651 28652 28
22922 28651 28653 28
22923 28651 28654 28
22924 28651 28655 28
22925 28656 28657 28
22926 28656 28658 28
22927 28656 28659 28
22928 28656 28660 28
22929 28661 28662 28
22930 28661 28663 28
22931 28661 28664 28
22932 28661 28665 28
22933 28666 28667 28
22934 28666 28668 28
22935 28666 28669 28
22936 28666 28670 28
22937 28671 28672 28
22938 28671 28673 28
22939 28671 28674 28
22940 28671 28675 28
22941 28676 28677 28
22942 28676 28678 28
22943 28676 28679 28
22944 28676 28680 28
22945 28681 28682 28
22946 28681 28683 28
22947 28681 28684 28
22948 28681 28685 28
22949 28686 28687 28
22950 28686 28688 28
22951 28686 28689 28
22952 28686 28690 28
22953 28691 28692 28
22954 28691 28693 28
22955 28691 28694 28
22956 28691 28695 28
22957 28696 28697 28
22958 28696 28698 28
22959 28696 28699 28
22960 28696 28700 28
22961 28701 28702 28
22962 28701 28703 28
22963 28701 28704 28
22964 28701 28705 28
22965 28706 28707 28
22966 28706 28708 28
22967 28706 28709 28
22968 28706 28710 28
22969 28711 28712 28
22970 28711 28713 28
22971 28711 28714 28
22972 28711 28715 28
22973 28716 28717 28
22974 28716 28718 28
22975 28716 28719 28
22976 28716 28720 28
22977 28721 28722 28
22978 28721 28723 28
22979 28721 28724 28
22980 28721 28725 28
22981 28726 28727 28
22982 28726 28728 28
22983 28726 28729 28
22984 28726 28730 28
22985 28731 28732 28
22986 28731 28733 28
22987 28731 28734 28
22988 28731 28735 28
22989 28736 28737 28
22990 28736 28738 28
22991 28736 28739 28
22992 28736 28740 28
22993 28741 28742 28
22994 28741 28743 28
22995 28741 28744 28
22996 28741 28745 28
22997 28746 28747 28
22998 28746 28748 28
22999 28746 28749 28
23000 28746 28750 28
23001 28751 28752 28
23002 28751 28753 28
23003 28751 28754 28
23004 28751 28755 28
23005 28756 28757 28
23006 28756 28758 28
23007 28756 28759 28
23008 28756 28760 28
23009 28761 28762 28
23010 28761 28763 28
23011 28761 28764 28
23012 28761 28765 28
23013 28766 28767 28
23014 28766 28768 28
23015 28766 28769 28
23016 28766 28770 28
23017 28771 28772 28
23018 28771 28773 28
23019 28771 28774 28
23020 28771 28775 28
23021 28776 28777 28
23022 28776 28778 28
23023 28776 28779 28
23024 28776 28780 28
23025 28781 28782 28
23026 28781 28783 28
23027 28781 28784 28
23028 28781 28785 28
23029 28786 28787 28
23030 28786 28788 28
23031 28786 28789 28
23032 28786 28790 28
23033 28791 28792 28
23034 28791 28793 28
23035 28791 28794 28
23036 28791 28795 28
23037 28796 28797 28
23038 28796 28798 28
23039 28796 28799 28
23040 28796 28800 28
23041 28801 28802 28
23042 28801 28803 28
23043 28801 28804 28
23044 28801 28805 28
23045 28806 28807 28
23046 28806 28808 28
23047 28806 28809 28
23048 28806 28810 28
23049 28811 28812 28
23050 28811 28813 28
23051 28811 28814 28
23052 28811 28815 28
23053 28816 28817 28
23054 28816 28818 28
23055 28816 28819 28
23056 28816 28820 28
23057 28821 28822 28
23058 28821 28823 28
23059 28821 28824 28
23060 28821 28825 28
23061 28826 28827 28
23062 28826 28828 28
23063 28826 28829 28
23064 28826 28830 28
23065 28831 28832 28
23066 28831 28833 28
23067 28831 28834 28
23068 28831 28835 28
23069 28836 28837 28
23070 28836 28838 28
23071 28836 28839 28
23072 28836 28840 28
23073 28841 28842 28
23074 28841 28843 28
23075 28841 28844 28
23076 28841 28845 28
23077 28846 28847 28
23078 28846 28848 28
23079 28846 28849 28
23080 28846 28850 28
23081 28851 28852 28
23082 28851 28853 28
23083 28851 28854 28
23084 28851 28855 28
23085 28856 28857 28
23086 28856 28858 28
23087 28856 28859 28
23088 28856 28860 28
23089 28861 28862 28
23090 28861 28863 28
23091 28861 28864 28
23092 28861 28865 28
23093 28866 28867 28
23094 28866 28868 28
23095 28866 28869 28
23096 28866 28870 28
23097 28871 28872 28
23098 28871 28873 28
23099 28871 28874 28
23100 28871 28875 28
23101 28876 28877 28
23102 28876 28878 28
23103 28876 28879 28
23104 28876 28880 28
23105 28881 28882 28
23106 28881 28883 28
23107 28881 28884 28
23108 28881 28885 28
23109 28886 28887 28
23110 28886 28888 28
23111 28886 28889 28
23112 28886 28890 28
23113 28891 28892 28
23114 28891 28893 28
23115 28891 28894 28
23116 28891 28895 28
23117 28896 28897 28
23118 28896 28898 28
23119 28896 28899 28
23120 28896 28900 28
23121 28901 28902 28
23122 28901 28903 28
23123 28901 28904 28
23124 28901 28905 28
23125 28906 28907 28
23126 28906 28908 28
23127 28906 28909 28
23128 28906 28910 28
23129 28911 28912 28
23130 28911 28913 28
23131 28911 28914 28
23132 28911 28915 28
23133 28916 28917 28
23134 28916 28918 28
23135 28916 28919 28
23136 28916 28920 28
23137 28921 28922 28
23138 28921 28923 28
23139 28921 28924 28
23140 28921 28925 28
23141 28926 28927 28
23142 28926 28928 28
23143 28926 28929 28
23144 28926 28930 28
23145 28931 28932 28
23146 28931 28933 28
23147 28931 28934 28
23148 28931 28935 28
23149 28936 28937 28
23150 28936 28938 28
23151 28936 28939 28
23152 28936 28940 28
23153 28941 28942 28
23154 28941 28943 28
23155 28941 28944 28
23156 28941 28945 28
23157 28946 28947 28
23158 28946 28948 28
23159 28946 28949 28
23160 28946 28950 28
23161 28951 28952 28
23162 28951 28953 28
23163 28951 28954 28
23164 28951 28955 28
23165 28956 28957 28
23166 28956 28958 28
23167 28956 28959 28
23168 28956 28960 28
23169 28961 28962 28
23170 28961 28963 28
23171 28961 28964 28
23172 28961 28965 28
23173 28966 28967 28
23174 28966 28968 28
23175 28966 28969 28
23176 28966 28970 28
23177 28971 28972 28
23178 28971 28973 28
23179 28971 28974 28
23180 28971 28975 28
23181 28976 28977 28
23182 28976 28978 28
23183 28976 28979 28
23184 28976 28980 28
23185 28981 28982 28
23186 28981 28983 28
23187 28981 28984 28
23188 28981 28985 28
23189 28986 28987 28
23190 28986 28988 28
23191 28986 28989 28
23192 28986 28990 28
23193 28991 28992 28
23194 28991 28993 28
23195 28991 28994 28
23196 28991 28995 28
23197 28996 28997 28
23198 28996 28998 28
23199 28996 28999 28
23200 28996 29000 28
23201 29001 29002 28
23202 29001 29003 28
23203 29001 29004 28
23204 29001 29005 28
23205 29006 29007 28
23206 29006 29008 28
23207 29006 29009 28
23208 29006 29010 28
23209 29011 29012 28
23210 29011 29013 28
23211 29011 29014 28
23212 29011 29015 28
23213 29016 29017 28
23214 29016 29018 28
23215 29016 29019 28
23216 29016 29020 28
23217 29021 29022 28
23218 29021 29023 28
23219 29021 29024 28
23220 29021 29025 28
23221 29026 29027 28
23222 29026 29028 28
23223 29026 29029 28
23224 29026 29030 28
23225 29031 29032 28
23226 29031 29033 28
23227 29031 29034 28
23228 29031 29035 28
23229 29036 29037 28
23230 29036 29038 28
23231 29036 29039 28
23232 29036 29040 28
23233 29041 29042 28
23234 29041 29043 28
23235 29041 29044 28
23236 29041 29045 28
23237 29046 29047 28
23238 29046 29048 28
23239 29046 29049 28
23240 29046 29050 28
23241 29051 29052 28
23242 29051 29053 28
23243 29051 29054 28
23244 29051 29055 28
23245 29056 29057 28
23246 29056 29058 28
23247 29056 29059 28
23248 29056 29060 28
23249 29061 29062 28
23250 29061 29063 28
23251 29061 29064 28
23252 29061 29065 28
23253 29066 29067 28
23254 29066 29068 28
23255 29066 29069 28
23256 29066 29070 28
23257 29071 29072 28
23258 29071 29073 28
23259 29071 29074 28
23260 29071 29075 28
23261 29076 29077 28
23262 29076 29078 28
23263 29076 29079 28
23264 29076 29080 28
23265 29081 29082 28
23266 29081 29083 28
23267 29081 29084 28
23268 29081 29085 28
23269 29086 29087 28
23270 29086 29088 28
23271 29086 29089 28
23272 29086 29090 28
23273 29091 29092 28
23274 29091 29093 28
23275 29091 29094 28
23276 29091 29095 28
23277 29096 29097 28
23278 29096 29098 28
23279 29096 29099 28
23280 29096 29100 28
23281 29101 29102 28
23282 29101 29103 28
23283 29101 29104 28
23284 29101 29105 28
23285 29106 29107 28
23286 29106 29108 28
23287 29106 29109 28
23288 29106 29110 28
23289 29111 29112 28
23290 29111 29113 28
23291 29111 29114 28
23292 29111 29115 28
23293 29116 29117 28
23294 29116 29118 28
23295 29116 29119 28
23296 29116 29120 28
23297 29121 29122 28
23298 29121 29123 28
23299 29121 29124 28
23300 29121 29125 28
23301 29126 29127 28
23302 29126 29128 28
23303 29126 29129 28
23304 29126 29130 28
23305 29131 29132 28
23306 29131 29133 28
23307 29131 29134 28
23308 29131 29135 28
23309 29136 29137 28
23310 29136 29138 28
23311 29136 29139 28
23312 29136 29140 28
23313 29141 29142 28
23314 29141 29143 28
23315 29141 29144 28
23316 29141 29145 28
23317 29146 29147 28
23318 29146 29148 28
23319 29146 29149 28
23320 29146 29150 28
23321 29151 29152 28
23322 29151 29153 28
23323 29151 29154 28
23324 29151 29155 28
23325 29156 29157 28
23326 29156 29158 28
23327 29156 29159 28
23328 29156 29160 28
23329 29161 29162 28
23330 29161 29163 28
23331 29161 29164 28
23332 29161 29165 28
23333 29166 29167 28
23334 29166 29168 28
23335 29166 29169 28
23336 29166 29170 28
23337 29171 29172 28
23338 29171 29173 28
23339 29171 29174 28
23340 29171 29175 28
23341 29176 29177 28
23342 29176 29178 28
23343 29176 29179 28
23344 29176 29180 28
23345 29181 29182 28
23346 29181 29183 28
23347 29181 29184 28
23348 29181 29185 28
23349 29186 29187 28
23350 29186 29188 28
23351 29186 29189 28
23352 29186 29190 28
23353 29191 29192 28
23354 29191 29193 28
23355 29191 29194 28
23356 29191 29195 28
23357 29196 29197 28
23358 29196 29198 28
23359 29196 29199 28
23360 29196 29200 28
23361 29201 29202 28
23362 29201 29203 28
23363 29201 29204 28
23364 29201 29205 28
23365 29206 29207 28
23366 29206 29208 28
23367 29206 29209 28
23368 29206 29210 28
23369 29211 29212 28
23370 29211 29213 28
23371 29211 29214 28
23372 29211 29215 28
23373 29216 29217 28
23374 29216 29218 28
23375 29216 29219 28
23376 29216 29220 28
23377 29221 29222 28
23378 29221 29223 28
23379 29221 29224 28
23380 29221 29225 28
23381 29226 29227 28
23382 29226 29228 28
23383 29226 29229 28
23384 29226 29230 28
23385 29231 29232 28
23386 29231 29233 28
23387 29231 29234 28
23388 29231 29235 28
23389 29236 29237 28
23390 29236 29238 28
23391 29236 29239 28
23392 29236 29240 28
23393 29241 29242 28
23394 29241 29243 28
23395 29241 29244 28
23396 29241 29245 28
23397 29246 29247 28
23398 29246 29248 28
23399 29246 29249 28
23400 29246 29250 28
23401 29251 29252 28
23402 29251 29253 28
23403 29251 29254 28
23404 29251 29255 28
23405 29256 29257 28
23406 29256 29258 28
23407 29256 29259 28
23408 29256 29260 28
23409 29261 29262 28
23410 29261 29263 28
23411 29261 29264 28
23412 29261 29265 28
23413 29266 29267 28
23414 29266 29268 28
23415 29266 29269 28
23416 29266 29270 28
23417 29271 29272 28
23418 29271 29273 28
23419 29271 29274 28
23420 29271 29275 28
23421 29276 29277 28
23422 29276 29278 28
23423 29276 29279 28
23424 29276 29280 28
23425 29281 29282 28
23426 29281 29283 28
23427 29281 29284 28
23428 29281 29285 28
23429 29286 29287 28
23430 29286 29288 28
23431 29286 29289 28
23432 29286 29290 28
23433 29291 29292 28
23434 29291 29293 28
23435 29291 29294 28
23436 29291 29295 28
23437 29296 29297 28
23438 29296 29298 28
23439 29296 29299 28
23440 29296 29300 28
23441 29301 29302 28
23442 29301 29303 28
23443 29301 29304 28
23444 29301 29305 28
23445 29306 29307 28
23446 29306 29308 28
23447 29306 29309 28
23448 29306 29310 28
23449 29311 29312 28
23450 29311 29313 28
23451 29311 29314 28
23452 29311 29315 28
23453 29316 29317 28
23454 29316 29318 28
23455 29316 29319 28
23456 29316 29320 28
23457 29321 29322 28
23458 29321 29323 28
23459 29321 29324 28
23460 29321 29325 28
23461 29326 29327 28
23462 29326 29328 28
23463 29326 29329 28
23464 29326 29330 28
23465 29331 29332 28
23466 29331 29333 28
23467 29331 29334 28
23468 29331 29335 28
23469 29336 29337 28
23470 29336 29338 28
23471 29336 29339 28
23472 29336 29340 28
23473 29341 29342 28
23474 29341 29343 28
23475 29341 29344 28
23476 29341 29345 28
23477 29346 29347 28
23478 29346 29348 28
23479 29346 29349 28
23480 29346 29350 28
23481 29351 29352 28
23482 29351 29353 28
23483 29351 29354 28
23484 29351 29355 28
23485 29356 29357 28
23486 29356 29358 28
23487 29356 29359 28
23488 29356 29360 28
23489 29361 29362 28
23490 29361 29363 28
23491 29361 29364 28
23492 29361 29365 28
23493 29366 29367 28
23494 29366 29368 28
23495 29366 29369 28
23496 29366 29370 28
23497 29371 29372 28
23498 29371 29373 28
23499 29371 29374 28
23500 29371 29375 28
23501 29376 29377 28
23502 29376 29378 28
23503 29376 29379 28
23504 29376 29380 28
23505 29381 29382 28
23506 29381 29383 28
23507 29381 29384 28
23508 29381 29385 28
23509 29386 29387 28
23510 29386 29388 28
23511 29386 29389 28
23512 29386 29390 28
23513 29391 29392 28
23514 29391 29393 28
23515 29391 29394 28
23516 29391 29395 28
23517 29396 29397 28
23518 29396 29398 28
23519 29396 29399 28
23520 29396 29400 28
23521 29401 29402 28
23522 29401 29403 28
23523 29401 29404 28
23524 29401 29405 28
23525 29406 29407 28
23526 29406 29408 28
23527 29406 29409 28
23528 29406 29410 28
23529 29411 29412 28
23530 29411 29413 28
23531 29411 29414 28
23532 29411 29415 28
23533 29416 29417 28
23534 29416 29418 28
23535 29416 29419 28
23536 29416 29420 28
23537 29421 29422 28
23538 29421 29423 28
23539 29421 29424 28
23540 29421 29425 28
23541 29426 29427 28
23542 29426 29428 28
23543 29426 29429 28
23544 29426 29430 28
23545 29431 29432 28
23546 29431 29433 28
23547 29431 29434 28
23548 29431 29435 28
23549 29436 29437 28
23550 29436 29438 28
23551 29436 29439 28
23552 29436 29440 28
23553 29441 29442 28
23554 29441 29443 28
23555 29441 29444 28
23556 29441 29445 28
23557 29446 29447 28
23558 29446 29448 28
23559 29446 29449 28
23560 29446 29450 28
23561 29451 29452 28
23562 29451 29453 28
23563 29451 29454 28
23564 29451 29455 28
23565 29456 29457 28
23566 29456 29458 28
23567 29456 29459 28
23568 29456 29460 28
23569 29461 29462 28
23570 29461 29463 28
23571 29461 29464 28
23572 29461 29465 28
23573 29466 29467 28
23574 29466 29468 28
23575 29466 29469 28
23576 29466 29470 28
23577 29471 29472 28
23578 29471 29473 28
23579 29471 29474 28
23580 29471 29475 28
23581 29476 29477 28
23582 29476 29478 28
23583 29476 29479 28
23584 29476 29480 28
23585 29481 29482 28
23586 29481 29483 28
23587 29481 29484 28
23588 29481 29485 28
23589 29486 29487 28
23590 29486 29488 28
23591 29486 29489 28
23592 29486 29490 28
23593 29491 29492 28
23594 29491 29493 28
23595 29491 29494 28
23596 29491 29495 28
23597 29496 29497 28
23598 29496 29498 28
23599 29496 29499 28
23600 29496 29500 28
23601 29501 29502 28
23602 29501 29503 28
23603 29501 29504 28
23604 29501 29505 28
23605 29506 29507 28
23606 29506 29508 28
23607 29506 29509 28
23608 29506 29510 28
23609 29511 29512 28
23610 29511 29513 28
23611 29511 29514 28
23612 29511 29515 28
23613 29516 29517 28
23614 29516 29518 28
23615 29516 29519 28
23616 29516 29520 28
23617 29521 29522 28
23618 29521 29523 28
23619 29521 29524 28
23620 29521 29525 28
23621 29526 29527 28
23622 29526 29528 28
23623 29526 29529 28
23624 29526 29530 28
23625 29531 29532 28
23626 29531 29533 28
23627 29531 29534 28
23628 29531 29535 28
23629 29536 29537 28
23630 29536 29538 28
23631 29536 29539 28
23632 29536 29540 28
23633 29541 29542 28
23634 29541 29543 28
23635 29541 29544 28
23636 29541 29545 28
23637 29546 29547 28
23638 29546 29548 28
23639 29546 29549 28
23640 29546 29550 28
23641 29551 29552 28
23642 29551 29553 28
23643 29551 29554 28
23644 29551 29555 28
23645 29556 29557 28
23646 29556 29558 28
23647 29556 29559 28
23648 29556 29560 28
23649 29561 29562 28
23650 29561 29563 28
23651 29561 29564 28
23652 29561 29565 28
23653 29566 29567 28
23654 29566 29568 28
23655 29566 29569 28
23656 29566 29570 28
23657 29571 29572 28
23658 29571 29573 28
23659 29571 29574 28
23660 29571 29575 28
23661 29576 29577 28
23662 29576 29578 28
23663 29576 29579 28
23664 29576 29580 28
23665 29581 29582 28
23666 29581 29583 28
23667 29581 29584 28
23668 29581 29585 28
23669 29586 29587 28
23670 29586 29588 28
23671 29586 29589 28
23672 29586 29590 28
23673 29591 29592 28
23674 29591 29593 28
23675 29591 29594 28
23676 29591 29595 28
23677 29596 29597 28
23678 29596 29598 28
23679 29596 29599 28
23680 29596 29600 28
23681 29601 29602 28
23682 29601 29603 28
23683 29601 29604 28
23684 29601 29605 28
23685 29606 29607 28
23686 29606 29608 28
23687 29606 29609 28
23688 29606 29610 28
23689 29611 29612 28
23690 29611 29613 28
23691 29611 29614 28
23692 29611 29615 28
23693 29616 29617 28
23694 29616 29618 28
23695 29616 29619 28
23696 29616 29620 28
23697 29621 29622 28
23698 29621 29623 28
23699 29621 29624 28
23700 29621 29625 28
23701 29626 29627 28
23702 29626 29628 28
23703 29626 29629 28
23704 29626 29630 28
23705 29631 29632 28
23706 29631 29633 28
23707 29631 29634 28
23708 29631 29635 28
23709 29636 29637 28
23710 29636 29638 28
23711 29636 29639 28
23712 29636 29640 28
23713 29641 29642 28
23714 29641 29643 28
23715 29641 29644 28
23716 29641 29645 28
23717 29646 29647 28
23718 29646 29648 28
23719 29646 29649 28
23720 29646 29650 28
23721 29651 29652 28
23722 29651 29653 28
23723 29651 29654 28
23724 29651 29655 28
23725 29656 29657 28
23726 29656 29658 28
23727 29656 29659 28
23728 29656 29660 28
23729 29661 29662 28
23730 29661 29663 28
23731 29661 29664 28
23732 29661 29665 28
23733 29666 29667 28
23734 29666 29668 28
23735 29666 29669 28
23736 29666 29670 28
23737 29671 29672 28
23738 29671 29673 28
23739 29671 29674 28
23740 29671 29675 28
23741 29676 29677 28
23742 29676 29678 28
23743 29676 29679 28
23744 29676 29680 28
23745 29681 29682 28
23746 29681 29683 28
23747 29681 29684 28
23748 29681 29685 28
23749 29686 29687 28
23750 29686 29688 28
23751 29686 29689 28
23752 29686 29690 28
23753 29691 29692 28
23754 29691 29693 28
23755 29691 29694 28
23756 29691 29695 28
23757 29696 29697 28
23758 29696 29698 28
23759 29696 29699 28
23760 29696 29700 28
23761 29701 29702 28
23762 29701 29703 28
23763 29701 29704 28
23764 29701 29705 28
23765 29706 29707 28
23766 29706 29708 28
23767 29706 29709 28
23768 29706 29710 28
23769 29711 29712 28
23770 29711 29713 28
23771 29711 29714 28
23772 29711 29715 28
23773 29716 29717 28
23774 29716 29718 28
23775 29716 29719 28
23776 29716 29720 28
23777 29721 29722 28
23778 29721 29723 28
23779 29721 29724 28
23780 29721 29725 28
23781 29726 29727 28
23782 29726 29728 28
23783 29726 29729 28
23784 29726 29730 28
23785 29731 29732 28
23786 29731 29733 28
23787 29731 29734 28
23788 29731 29735 28
23789 29736 29737 28
23790 29736 29738 28
23791 29736 29739 28
23792 29736 29740 28
23793 29741 29742 28
23794 29741 29743 28
23795 29741 29744 28
23796 29741 29745 28
23797 29746 29747 28
23798 29746 29748 28
23799 29746 29749 28
23800 29746 29750 28
23801 29751 29752 28
23802 29751 29753 28
23803 29751 29754 28
23804 29751 29755 28
23805 29756 29757 28
23806 29756 29758 28
23807 29756 29759 28
23808 29756 29760 28
23809 29761 29762 28
23810 29761 29763 28
23811 29761 29764 28
23812 29761 29765 28
23813 29766 29767 28
23814 29766 29768 28
23815 29766 29769 28
23816 29766 29770 28
23817 29771 29772 28
23818 29771 29773 28
23819 29771 29774 28
23820 29771 29775 28
23821 29776 29777 28
23822 29776 29778 28
23823 29776 29779 28
23824 29776 29780 28
23825 29781 29782 28
23826 29781 29783 28
23827 29781 29784 28
23828 29781 29785 28
23829 29786 29787 28
23830 29786 29788 28
23831 29786 29789 28
23832 29786 29790 28
23833 29791 29792 28
23834 29791 29793 28
23835 29791 29794 28
23836 29791 29795 28
23837 29796 29797 28
23838 29796 29798 28
23839 29796 29799 28
23840 29796 29800 28
23841 29801 29802 28
23842 29801 29803 28
23843 29801 29804 28
23844 29801 29805 28
23845 29806 29807 28
23846 29806 29808 28
23847 29806 29809 28
23848 29806 29810 28
23849 29811 29812 28
23850 29811 29813 28
23851 29811 29814 28
23852 29811 29815 28
23853 29816 29817 28
23854 29816 29818 28
23855 29816 29819 28
23856 29816 29820 28
23857 29821 29822 28
23858 29821 29823 28
23859 29821 29824 28
23860 29821 29825 28
23861 29826 29827 28
23862 29826 29828 28
23863 29826 29829 28
23864 29826 29830 28
23865 29831 29832 28
23866 29831 29833 28
23867 29831 29834 28
23868 29831 29835 28
23869 29836 29837 28
23870 29836 29838 28
23871 29836 29839 28
23872 29836 29840 28
23873 29841 29842 28
23874 29841 29843 28
23875 29841 29844 28
23876 29841 29845 28
23877 29846 29847 28
23878 29846 29848 28
23879 29846 29849 28
23880 29846 29850 28
23881 29851 29852 28
23882 29851 29853 28
23883 29851 29854 28
23884 29851 29855 28
23885 29856 29857 28
23886 29856 29858 28
23887 29856 29859 28
23888 29856 29860 28
23889 29861 29862 28
23890 29861 29863 28
23891 29861 29864 28
23892 29861 29865 28
23893 29866 29867 28
23894 29866 29868 28
23895 29866 29869 28
23896 29866 29870 28
23897 29871 29872 28
23898 29871 29873 28
23899 29871 29874 28
23900 29871 29875 28
23901 29876 29877 28
23902 29876 29878 28
23903 29876 29879 28
23904 29876 29880 28
23905 29881 29882 28
23906 29881 29883 28
23907 29881 29884 28
23908 29881 29885 28
23909 29886 29887 28
23910 29886 29888 28
23911 29886 29889 28
23912 29886 29890 28
23913 29891 29892 28
23914 29891 29893 28
23915 29891 29894 28
23916 29891 29895 28
23917 29896 29897 28
23918 29896 29898 28
23919 29896 29899 28
23920 29896 29900 28
23921 29901 29902 28
23922 29901 29903 28
23923 29901 29904 28
23924 29901 29905 28
23925 29906 29907 28
23926 29906 29908 28
23927 29906 29909 28
23928 29906 29910 28
23929 29911 29912 28
23930 29911 29913 28
23931 29911 29914 28
23932 29911 29915 28
23933 29916 29917 28
23934 29916 29918 28
23935 29916 29919 28
23936 29916 29920 28
23937 29921 29922 28
23938 29921 29923 28
23939 29921 29924 28
23940 29921 29925 28
23941 29926 29927 28
23942 29926 29928 28
23943 29926 29929 28
23944 29926 29930 28
23945 29931 29932 28
23946 29931 29933 28
23947 29931 29934 28
23948 29931 29935 28
23949 29936 29937 28
23950 29936 29938 28
23951 29936 29939 28
23952 29936 29940 28
23953 29941 29942 28
23954 29941 29943 28
23955 29941 29944 28
23956 29941 29945 28
23957 29946 29947 28
23958 29946 29948 28
23959 29946 29949 28
23960 29946 29950 28
23961 29951 29952 28
23962 29951 29953 28
23963 29951 29954 28
23964 29951 29955 28
23965 29956 29957 28
23966 29956 29958 28
23967 29956 29959 28
23968 29956 29960 28
23969 29961 29962 28
23970 29961 29963 28
23971 29961 29964 28
23972 29961 29965 28
23973 29966 29967 28
23974 29966 29968 28
23975 29966 29969 28
23976 29966 29970 28
23977 29971 29972 28
23978 29971 29973 28
23979 29971 29974 28
23980 29971 29975 28
23981 29976 29977 28
23982 29976 29978 28
23983 29976 29979 28
23984 29976 29980 28
23985 29981 29982 28
23986 29981 29983 28
23987 29981 29984 28
23988 29981 29985 28
23989 29986 29987 28
23990 29986 29988 28
23991 29986 29989 28
23992 29986 29990 28
23993 29991 29992 28
23994 29991 29993 28
23995 29991 29994 28
23996 29991 29995 28
23997 29996 29997 28
23998 29996 29998 28
23999 29996 29999 28
24000 29996 30000 28
24001 30001 30002 28
24002 30001 30003 28
24003 30001 30004 28
24004 30001 30005 28
24005 30006 30007 28
24006 30006 30008 28
24007 30006 30009 28
24008 30006 30010 28
24009 30011 30012 28
24010 30011 30013 28
24011 30011 30014 28
24012 30011 30015 28
24013 30016 30017 28
24014 30016 30018 28
24015 30016 30019 28
24016 30016 30020 28
24017 30021 30022 28
24018 30021 30023 28
24019 30021 30024 28
24020 30021 30025 28
24021 30026 30027 28
24022 30026 30028 28
24023 30026 30029 28
24024 30026 30030 28
24025 30031 30032 28
24026 30031 30033 28
24027 30031 30034 28
24028 30031 30035 28
24029 30036 30037 28
24030 30036 30038 28
24031 30036 30039 28
24032 30036 30040 28
24033 30041 30042 28
24034 30041 30043 28
24035 30041 30044 28
24036 30041 30045 28
24037 30046 30047 28
24038 30046 30048 28
24039 30046 30049 28
24040 30046 30050 28
24041 30051 30052 28
24042 30051 30053 28
24043 30051 30054 28
24044 30051 30055 28
24045 30056 30057 28
24046 30056 30058 28
24047 30056 30059 28
24048 30056 30060 28
24049 30061 30062 28
24050 30061 30063 28
24051 30061 30064 28
24052 30061 30065 28
24053 30066 30067 28
24054 30066 30068 28
24055 30066 30069 28
24056 30066 30070 28
24057 30071 30072 28
24058 30071 30073 28
24059 30071 30074 28
24060 30071 30075 28
24061 30076 30077 28
24062 30076 30078 28
24063 30076 30079 28
24064 30076 30080 28
24065 30081 30082 28
24066 30081 30083 28
24067 30081 30084 28
24068 30081 30085 28
24069 30086 30087 28
24070 30086 30088 28
24071 30086 30089 28
24072 30086 30090 28
24073 30091 30092 28
24074 30091 30093 28
24075 30091 30094 28
24076 30091 30095 28
24077 30096 30097 28
24078 30096 30098 28
24079 30096 30099 28
24080 30096 30100 28
24081 30101 30102 28
24082 30101 30103 28
24083 30101 30104 28
24084 30101 30105 28
24085 30106 30107 28
24086 30106 30108 28
24087 30106 30109 28
24088 30106 30110 28
24089 30111 30112 28
24090 30111 30113 28
24091 30111 30114 28
24092 30111 30115 28
24093 30116 30117 28
24094 30116 30118 28
24095 30116 30119 28
24096 30116 30120 28
24097 30121 30122 28
24098 30121 30123 28
24099 30121 30124 28
24100 30121 30125 28
24101 30126 30127 28
24102 30126 30128 28
24103 30126 30129 28
24104 30126 30130 28
24105 30131 30132 28
24106 30131 30133 28
24107 30131 30134 28
24108 30131 30135 28
24109 30136 30137 28
24110 30136 30138 28
24111 30136 30139 28
24112 30136 30140 28
24113 30141 30142 28
24114 30141 30143 28
24115 30141 30144 28
24116 30141 30145 28
24117 30146 30147 28
24118 30146 30148 28
24119 30146 30149 28
24120 30146 30150 28
24121 30151 30152 28
24122 30151 30153 28
24123 30151 30154 28
24124 30151 30155 28
24125 30156 30157 28
24126 30156 30158 28
24127 30156 30159 28
24128 30156 30160 28
24129 30161 30162 28
24130 30161 30163 28
24131 30161 30164 28
24132 30161 30165 28
24133 30166 30167 28
24134 30166 30168 28
24135 30166 30169 28
24136 30166 30170 28
24137 30171 30172 28
24138 30171 30173 28
24139 30171 30174 28
24140 30171 30175 28
24141 30176 30177 28
24142 30176 30178 28
24143 30176 30179 28
24144 30176 30180 28
24145 30181 30182 28
24146 30181 30183 28
24147 30181 30184 28
24148 30181 30185 28
24149 30186 30187 28
24150 30186 30188 28
24151 30186 30189 28
24152 30186 30190 28
24153 30191 30192 28
24154 30191 30193 28
24155 30191 30194 28
24156 30191 30195 28
24157 30196 30197 28
24158 30196 30198 28
24159 30196 30199 28
24160 30196 30200 28
24161 30201 30202 28
24162 30201 30203 28
24163 30201 30204 28
24164 30201 30205 28
24165 30206 30207 28
24166 30206 30208 28
24167 30206 30209 28
24168 30206 30210 28
24169 30211 30212 28
24170 30211 30213 28
24171 30211 30214 28
24172 30211 30215 28
24173 30216 30217 28
24174 30216 30218 28
24175 30216 30219 28
24176 30216 30220 28
24177 30221 30222 28
24178 30221 30223 28
24179 30221 30224 28
24180 30221 30225 28
24181 30226 30227 28
24182 30226 30228 28
24183 30226 30229 28
24184 30226 30230 28
24185 30231 30232 28
24186 30231 30233 28
24187 30231 30234 28
24188 30231 30235 28
24189 30236 30237 28
24190 30236 30238 28
24191 30236 30239 28
24192 30236 30240 28
24193 30241 30242 28
24194 30241 30243 28
24195 30241 30244 28
24196 30241 30245 28
24197 30246 30247 28
24198 30246 30248 28
24199 30246 30249 28
24200 30246 30250 28
24201 30251 30252 28
24202 30251 30253 28
24203 30251 30254 28
24204 30251 30255 28
24205 30256 30257 28
24206 30256 30258 28
24207 30256 30259 28
24208 30256 30260 28
24209 30261 30262 28
24210 30261 30263 28
24211 30261 30264 28
24212 30261 30265 28
24213 30266 30267 28
24214 30266 30268 28
24215 30266 30269 28
24216 30266 30270 28
24217 30271 30272 28
24218 30271 30273 28
24219 30271 30274 28
24220 30271 30275 28
24221 30276 30277 28
24222 30276 30278 28
24223 30276 30279 28
24224 30276 30280 28
24225 30281 30282 28
24226 30281 30283 28
24227 30281 30284 28
24228 30281 30285 28
24229 30286 30287 28
24230 30286 30288 28
24231 30286 30289 28
24232 30286 30290 28
24233 30291 30292 28
24234 30291 30293 28
24235 30291 30294 28
24236 30291 30295 28
24237 30296 30297 28
24238 30296 30298 28
24239 30296 30299 28
24240 30296 30300 28
24241 30301 30302 28
24242 30301 30303 28
24243 30301 30304 28
24244 30301 30305 28
24245 30306 30307 28
24246 30306 30308 28
24247 30306 30309 28
24248 30306 30310 28
24249 30311 30312 28
24250 30311 30313 28
24251 30311 30314 28
24252 30311 30315 28
24253 30316 30317 28
24254 30316 30318 28
24255 30316 30319 28
24256 30316 30320 28
24257 30321 30322 28
24258 30321 30323 28
24259 30321 30324 28
24260 30321 30325 28
24261 30326 30327 28
24262 30326 30328 28
24263 30326 30329 28
24264 30326 30330 28
24265 30331 30332 28
24266 30331 30333 28
24267 30331 30334 28
24268 30331 30335 28
24269 30336 30337 28
24270 30336 30338 28
24271 30336 30339 28
24272 30336 30340 28
24273 30341 30342 28
24274 30341 30343 28
24275 30341 30344 28
24276 30341 30345 28
24277 30346 30347 28
24278 30346 30348 28
24279 30346 30349 28
24280 30346 30350 28
24281 30351 30352 28
24282 30351 30353 28
24283 30351 30354 28
24284 30351 30355 28
24285 30356 30357 28
24286 30356 30358 28
24287 30356 30359 28
24288 30356 30360 28
24289 30361 30362 28
24290 30361 30363 28
24291 30361 30364 28
24292 30361 30365 28
24293 30366 30367 28
24294 30366 30368 28
24295 30366 30369 28
24296 30366 30370 28
24297 30371 30372 28
24298 30371 30373 28
24299 30371 30374 28
24300 30371 30375 28
24301 30376 30377 28
24302 30376 30378 28
24303 30376 30379 28
24304 30376 30380 28
24305 30381 30382 28
24306 30381 30383 28
24307 30381 30384 28
24308 30381 30385 28
24309 30386 30387 28
24310 30386 30388 28
24311 30386 30389 28
24312 30386 30390 28
24313 30391 30392 28
24314 30391 30393 28
24315 30391 30394 28
24316 30391 30395 28
24317 30396 30397 28
24318 30396 30398 28
24319 30396 30399 28
24320 30396 30400 28
24321 30401 30402 28
24322 30401 30403 28
24323 30401 30404 28
24324 30401 30405 28
24325 30406 30407 28
24326 30406 30408 28
24327 30406 30409 28
24328 30406 30410 28
24329 30411 30412 28
24330 30411 30413 28
24331 30411 30414 28
24332 30411 30415 28
24333 30416 30417 28
24334 30416 30418 28
24335 30416 30419 28
24336 30416 30420 28
24337 30421 30422 28
24338 30421 30423 28
24339 30421 30424 28
24340 30421 30425 28
24341 30426 30427 28
24342 30426 30428 28
24343 30426 30429 28
24344 30426 30430 28
24345 30431 30432 28
24346 30431 30433 28
24347 30431 30434 28
24348 30431 30435 28
24349 30436 30437 28
24350 30436 30438 28
24351 30436 30439 28
24352 30436 30440 28
24353 30441 30442 28
24354 30441 30443 28
24355 30441 30444 28
24356 30441 30445 28
24357 30446 30447 28
24358 30446 30448 28
24359 30446 30449 28
24360 30446 30450 28
24361 30451 30452 28
24362 30451 30453 28
24363 30451 30454 28
24364 30451 30455 28
24365 30456 30457 28
24366 30456 30458 28
24367 30456 30459 28
24368 30456 30460 28
24369 30461 30462 28
24370 30461 30463 28
24371 30461 30464 28
24372 30461 30465 28
24373 30466 30467 28
24374 30466 30468 28
24375 30466 30469 28
24376 30466 30470 28
24377 30471 30472 28
24378 30471 30473 28
24379 30471 30474 28
24380 30471 30475 28
24381 30476 30477 28
24382 30476 30478 28
24383 30476 30479 28
24384 30476 30480 28
24385 30481 30482 28
24386 30481 30483 28
24387 30481 30484 28
24388 30481 30485 28
24389 30486 30487 28
24390 30486 30488 28
24391 30486 30489 28
24392 30486 30490 28
24393 30491 30492 28
24394 30491 30493 28
24395 30491 30494 28
24396 30491 30495 28
24397 30496 30497 28
24398 30496 30498 28
24399 30496 30499 28
24400 30496 30500 28
24401 30501 30502 28
24402 30501 30503 28
24403 30501 30504 28
24404 30501 30505 28
24405 30506 30507 28
24406 30506 30508 28
24407 30506 30509 28
24408 30506 30510 28
24409 30511 30512 28
24410 30511 30513 28
24411 30511 30514 28
24412 30511 30515 28
24413 30516 30517 28
24414 30516 30518 28
24415 30516 30519 28
24416 30516 30520 28
24417 30521 30522 28
24418 30521 30523 28
24419 30521 30524 28
24420 30521 30525 28
24421 30526 30527 28
24422 30526 30528 28
24423 30526 30529 28
24424 30526 30530 28
24425 30531 30532 28
24426 30531 30533 28
24427 30531 30534 28
24428 30531 30535 28
24429 30536 30537 28
24430 30536 30538 28
24431 30536 30539 28
24432 30536 30540 28
24433 30541 30542 28
24434 30541 30543 28
24435 30541 30544 28
24436 30541 30545 28
24437 30546 30547 28
24438 30546 30548 28
24439 30546 30549 28
24440 30546 30550 28
24441 30551 30552 28
24442 30551 30553 28
24443 30551 30554 28
24444 30551 30555 28
24445 30556 30557 28
24446 30556 30558 28
24447 30556 30559 28
24448 30556 30560 28
24449 30561 30562 28
24450 30561 30563 28
24451 30561 30564 28
24452 30561 30565 28
24453 30566 30567 28
24454 30566 30568 28
24455 30566 30569 28
24456 30566 30570 28
24457 30571 30572 28
24458 30571 30573 28
24459 30571 30574 28
24460 30571 30575 28
24461 30576 30577 28
24462 30576 30578 28
24463 30576 30579 28
24464 30576 30580 28
24465 30581 30582 28
24466 30581 30583 28
24467 30581 30584 28
24468 30581 30585 28
24469 30586 30587 28
24470 30586 30588 28
24471 30586 30589 28
24472 30586 30590 28
24473 30591 30592 28
24474 30591 30593 28
24475 30591 30594 28
24476 30591 30595 28
24477 30596 30597 28
24478 30596 30598 28
24479 30596 30599 28
24480 30596 30600 28
24481 30601 30602 28
24482 30601 30603 28
24483 30601 30604 28
24484 30601 30605 28
24485 30606 30607 28
24486 30606 30608 28
24487 30606 30609 28
24488 30606 30610 28
24489 30611 30612 28
24490 30611 30613 28
24491 30611 30614 28
24492 30611 30615 28
24493 30616 30617 28
24494 30616 30618 28
24495 30616 30619 28
24496 30616 30620 28
24497 30621 30622 28
24498 30621 30623 28
24499 30621 30624 28
24500 30621 30625 28
24501 30626 30627 28
24502 30626 30628 28
24503 30626 30629 28
24504 30626 30630 28
24505 30631 30632 28
24506 30631 30633 28
24507 30631 30634 28
24508 30631 30635 28
24509 30636 30637 28
24510 30636 30638 28
24511 30636 30639 28
24512 30636 30640 28
24513 30641 30642 28
24514 30641 30643 28
24515 30641 30644 28
24516 30641 30645 28
24517 30646 30647 28
24518 30646 30648 28
24519 30646 30649 28
24520 30646 30650 28
24521 30651 30652 28
24522 30651 30653 28
24523 30651 30654 28
24524 30651 30655 28
24525 30656 30657 28
24526 30656 30658 28
24527 30656 30659 28
24528 30656 30660 28
24529 30661 30662 28
24530 30661 30663 28
24531 30661 30664 28
24532 30661 30665 28
24533 30666 30667 28
24534 30666 30668 28
24535 30666 30669 28
24536 30666 30670 28
24537 30671 30672 28
24538 30671 30673 28
24539 30671 30674 28
24540 30671 30675 28
24541 30676 30677 28
24542 30676 30678 28
24543 30676 30679 28
24544 30676 30680 28
24545 30681 30682 28
24546 30681 30683 28
24547 30681 30684 28
24548 30681 30685 28
24549 30686 30687 28
24550 30686 30688 28
24551 30686 30689 28
24552 30686 30690 28
24553 30691 30692 28
24554 30691 30693 28
24555 30691 30694 28
24556 30691 30695 28
24557 30696 30697 28
24558 30696 30698 28
24559 30696 30699 28
24560 30696 30700 28
24561 30701 30702 28
24562 30701 30703 28
24563 30701 30704 28
24564 30701 30705 28
24565 30706 30707 28
24566 30706 30708 28
24567 30706 30709 28
24568 30706 30710 28
24569 30711 30712 28
24570 30711 30713 28
24571 30711 30714 28
24572 30711 30715 28
24573 30716 30717 28
24574 30716 30718 28
24575 30716 30719 28
24576 30716 30720 28
24577 30721 30722 28
24578 30721 30723 28
24579 30721 30724 28
24580 30721 30725 28
24581 30726 30727 28
24582 30726 30728 28
24583 30726 30729 28
24584 30726 30730 28
24585 30731 30732 28
24586 30731 30733 28
24587 30731 30734 28
24588 30731 30735 28
24589 30736 30737 28
24590 30736 30738 28
24591 30736 30739 28
24592 30736 30740 28
24593 30741 30742 28
24594 30741 30743 28
24595 30741 30744 28
24596 30741 30745 28
24597 30746 30747 28
24598 30746 30748 28
24599 30746 30749 28
24600 30746 30750 28
24601 30751 30752 28
24602 30751 30753 28
24603 30751 30754 28
24604 30751 30755 28
24605 30756 30757 28
24606 30756 30758 28
24607 30756 30759 28
24608 30756 30760 28
24609 30761 30762 28
24610 30761 30763 28
24611 30761 30764 28
24612 30761 30765 28
24613 30766 30767 28
24614 30766 30768 28
24615 30766 30769 28
24616 30766 30770 28
24617 30771 30772 28
24618 30771 30773 28
24619 30771 30774 28
24620 30771 30775 28
24621 30776 30777 28
24622 30776 30778 28
24623 30776 30779 28
24624 30776 30780 28
24625 30781 30782 28
24626 30781 30783 28
24627 30781 30784 28
24628 30781 30785 28
24629 30786 30787 28
24630 30786 30788 28
24631 30786 30789 28
24632 30786 30790 28
24633 30791 30792 28
24634 30791 30793 28
24635 30791 30794 28
24636 30791 30795 28
24637 30796 30797 28
24638 30796 30798 28
24639 30796 30799 28
24640 30796 30800 28
24641 30801 30802 28
24642 30801 30803 28
24643 30801 30804 28
24644 30801 30805 28
24645 30806 30807 28
24646 30806 30808 28
24647 30806 30809 28
24648 30806 30810 28
24649 30811 30812 28
24650 30811 30813 28
24651 30811 30814 28
24652 30811 30815 28
24653 30816 30817 28
24654 30816 30818 28
24655 30816 30819 28
24656 30816 30820 28
24657 30821 30822 28
24658 30821 30823 28
24659 30821 30824 28
24660 30821 30825 28
24661 30826 30827 28
24662 30826 30828 28
24663 30826 30829 28
24664 30826 30830 28
24665 30831 30832 28
24666 30831 30833 28
24667 30831 30834 28
24668 30831 30835 28
24669 30836 30837 28
24670 30836 30838 28
24671 30836 30839 28
24672 30836 30840 28
24673 30841 30842 28
24674 30841 30843 28
24675 30841 30844 28
24676 30841 30845 28
24677 30846 30847 28
24678 30846 30848 28
24679 30846 30849 28
24680 30846 30850 28
24681 30851 30852 28
24682 30851 30853 28
24683 30851 30854 28
24684 30851 30855 28
24685 30856 30857 28
24686 30856 30858 28
24687 30856 30859 28
24688 30856 30860 28
24689 30861 30862 28
24690 30861 30863 28
24691 30861 30864 28
24692 30861 30865 28
24693 30866 30867 28
24694 30866 30868 28
24695 30866 30869 28
24696 30866 30870 28
24697 30871 30872 28
24698 30871 30873 28
24699 30871 30874 28
24700 30871 30875 28
24701 30876 30877 28
24702 30876 30878 28
24703 30876 30879 28
24704 30876 30880 28
24705 30881 30882 28
24706 30881 30883 28
24707 30881 30884 28
24708 30881 30885 28
24709 30886 30887 28
24710 30886 30888 28
24711 30886 30889 28
24712 30886 30890 28
24713 30891 30892 28
24714 30891 30893 28
24715 30891 30894 28
24716 30891 30895 28
24717 30896 30897 28
24718 30896 30898 28
24719 30896 30899 28
24720 30896 30900 28
24721 30901 30902 28
24722 30901 30903 28
24723 30901 30904 28
24724 30901 30905 28
24725 30906 30907 28
24726 30906 30908 28
24727 30906 30909 28
24728 30906 30910 28
24729 30911 30912 28
24730 30911 30913 28
24731 30911 30914 28
24732 30911 30915 28
24733 30916 30917 28
24734 30916 30918 28
24735 30916 30919 28
24736 30916 30920 28
24737 30921 30922 28
24738 30921 30923 28
24739 30921 30924 28
24740 30921 30925 28
24741 30926 30927 28
24742 30926 30928 28
24743 30926 30929 28
24744 30926 30930 28
24745 30931 30932 28
24746 30931 30933 28
24747 30931 30934 28
24748 30931 30935 28
24749 30936 30937 28
24750 30936 30938 28
24751 30936 30939 28
24752 30936 30940 28
24753 30941 30942 28
24754 30941 30943 28
24755 30941 30944 28
24756 30941 30945 28
24757 30946 30947 28
24758 30946 30948 28
24759 30946 30949 28
24760 30946 30950 28
24761 30951 30952 28
24762 30951 30953 28
24763 30951 30954 28
24764 30951 30955 28
24765 30956 30957 28
24766 30956 30958 28
24767 30956 30959 28
24768 30956 30960 28
24769 30961 30962 28
24770 30961 30963 28
24771 30961 30964 28
24772 30961 30965 28
24773 30966 30967 28
24774 30966 30968 28
24775 30966 30969 28
24776 30966 30970 28
24777 30971 30972 28
24778 30971 30973 28
24779 30971 30974 28
24780 30971 30975 28
24781 30976 30977 28
24782 30976 30978 28
24783 30976 30979 28
24784 30976 30980 28
24785 30981 30982 28
24786 30981 30983 28
24787 30981 30984 28
24788 30981 30985 28
24789 30986 30987 28
24790 30986 30988 28
24791 30986 30989 28
24792 30986 30990 28
24793 30991 30992 28
24794 30991 30993 28
24795 30991 30994 28
24796 30991 30995 28
24797 30996 30997 28
24798 30996 30998 28
24799 30996 30999 28
24800 30996 31000 28
24801 31001 31002 28
24802 31001 31003 28
24803 31001 31004 28
24804 31001 31005 28
24805 31006 31007 28
24806 31006 31008 28
24807 31006 31009 28
24808 31006 31010 28
24809 31011 31012 28
24810 31011 31013 28
24811 31011 31014 28
24812 31011 31015 28
24813 31016 31017 28
24814 31016 31018 28
24815 31016 31019 28
24816 31016 31020 28
24817 31021 31022 28
24818 31021 31023 28
24819 31021 31024 28
24820 31021 31025 28
24821 31026 31027 28
24822 31026 31028 28
24823 31026 31029 28
24824 31026 31030 28
24825 31031 31032 28
24826 31031 31033 28
24827 31031 31034 28
24828 31031 31035 28
24829 31036 31037 28
24830 31036 31038 28
24831 31036 31039 28
24832 31036 31040 28
24833 31041 31042 28
24834 31041 31043 28
24835 31041 31044 28
24836 31041 31045 28
24837 31046 31047 28
24838 31046 31048 28
24839 31046 31049 28
24840 31046 31050 28
24841 31051 31052 28
24842 31051 31053 28
24843 31051 31054 28
24844 31051 31055 28
24845 31056 31057 28
24846 31056 31058 28
24847 31056 31059 28
24848 31056 31060 28
24849 31061 31062 28
24850 31061 31063 28
24851 31061 31064 28
24852 31061 31065 28
24853 31066 31067 28
24854 31066 31068 28
24855 31066 31069 28
24856 31066 31070 28
24857 31071 31072 28
24858 31071 31073 28
24859 31071 31074 28
24860 31071 31075 28
24861 31076 31077 28
24862 31076 31078 28
24863 31076 31079 28
24864 31076 31080 28
24865 31081 31082 28
24866 31081 31083 28
24867 31081 31084 28
24868 31081 31085 28
24869 31086 31087 28
24870 31086 31088 28
24871 31086 31089 28
24872 31086 31090 28
24873 31091 31092 28
24874 31091 31093 28
24875 31091 31094 28
24876 31091 31095 28
24877 31096 31097 28
24878 31096 31098 28
24879 31096 31099 28
24880 31096 31100 28
24881 31101 31102 28
24882 31101 31103 28
24883 31101 31104 28
24884 31101 31105 28
24885 31106 31107 28
24886 31106 31108 28
24887 31106 31109 28
24888 31106 31110 28
24889 31111 31112 28
24890 31111 31113 28
24891 31111 31114 28
24892 31111 31115 28
24893 31116 31117 28
24894 31116 31118 28
24895 31116 31119 28
24896 31116 31120 28
24897 31121 31122 28
24898 31121 31123 28
24899 31121 31124 28
24900 31121 31125 28
24901 31126 31127 28
24902 31126 31128 28
24903 31126 31129 28
24904 31126 31130 28
24905 31131 31132 28
24906 31131 31133 28
24907 31131 31134 28
24908 31131 31135 28
24909 31136 31137 28
24910 31136 31138 28
24911 31136 31139 28
24912 31136 31140 28
24913 31141 31142 28
24914 31141 31143 28
24915 31141 31144 28
24916 31141 31145 28
24917 31146 31147 28
24918 31146 31148 28
24919 31146 31149 28
24920 31146 31150 28
24921 31151 31152 28
24922 31151 31153 28
24923 31151 31154 28
24924 31151 31155 28
24925 31156 31157 28
24926 31156 31158 28
24927 31156 31159 28
24928 31156 31160 28
24929 31161 31162 28
24930 31161 31163 28
24931 31161 31164 28
24932 31161 31165 28
24933 31166 31167 28
24934 31166 31168 28
24935 31166 31169 28
24936 31166 31170 28
24937 31171 31172 28
24938 31171 31173 28
24939 31171 31174 28
24940 31171 31175 28
24941 31176 31177 28
24942 31176 31178 28
24943 31176 31179 28
24944 31176 31180 28
24945 31181 31182 28
24946 31181 31183 28
24947 31181 31184 28
24948 31181 31185 28
24949 31186 31187 28
24950 31186 31188 28
24951 31186 31189 28
24952 31186 31190 28
24953 31191 31192 28
24954 31191 31193 28
24955 31191 31194 28
24956 31191 31195 28
24957 31196 31197 28
24958 31196 31198 28
24959 31196 31199 28
24960 31196 31200 28
24961 31201 31202 28
24962 31201 31203 28
24963 31201 31204 28
24964 31201 31205 28
24965 31206 31207 28
24966 31206 31208 28
24967 31206 31209 28
24968 31206 31210 28
24969 31211 31212 28
24970 31211 31213 28
24971 31211 31214 28
24972 31211 31215 28
24973 31216 31217 28
24974 31216 31218 28
24975 31216 31219 28
24976 31216 31220 28
24977 31221 31222 28
24978 31221 31223 28
24979 31221 31224 28
24980 31221 31225 28
24981 31226 31227 28
24982 31226 31228 28
24983 31226 31229 28
24984 31226 31230 28
24985 31231 31232 28
24986 31231 31233 28
24987 31231 31234 28
24988 31231 31235 28
24989 31236 31237 28
24990 31236 31238 28
24991 31236 31239 28
24992 31236 31240 28
24993 31241 31242 28
24994 31241 31243 28
24995 31241 31244 28
24996 31241 31245 28
24997 31246 31247 28
24998 31246 31248 28
24999 31246 31249 28
25000 31246 31250 28
25001 31251 31252 28
25002 31251 31253 28
25003 31251 31254 28
25004 31251 31255 28
25005 31256 31257 28
25006 31256 31258 28
25007 31256 31259 28
25008 31256 31260 28
25009 31261 31262 28
25010 31261 31263 28
25011 31261 31264 28
25012 31261 31265 28
25013 31266 31267 28
25014 31266 31268 28
25015 31266 31269 28
25016 31266 31270 28
25017 31271 31272 28
25018 31271 31273 28
25019 31271 31274 28
25020 31271 31275 28
25021 31276 31277 28
25022 31276 31278 28
25023 31276 31279 28
25024 31276 31280 28
25025 31281 31282 28
25026 31281 31283 28
25027 31281 31284 28
25028 31281 31285 28
25029 31286 31287 28
25030 31286 31288 28
25031 31286 31289 28
25032 31286 31290 28
25033 31291 31292 28
25034 31291 31293 28
25035 31291 31294 28
25036 31291 31295 28
25037 31296 31297 28
25038 31296 31298 28
25039 31296 31299 28
25040 31296 31300 28
25041 31301 31302 28
25042 31301 31303 28
25043 31301 31304 28
25044 31301 31305 28
25045 31306 31307 28
25046 31306 31308 28
25047 31306 31309 28
25048 31306 31310 28
25049 31311 31312 28
25050 31311 31313 28
25051 31311 31314 28
25052 31311 31315 28
25053 31316 31317 28
25054 31316 31318 28
25055 31316 31319 28
25056 31316 31320 28
25057 31321 31322 28
25058 31321 31323 28
25059 31321 31324 28
25060 31321 31325 28
25061 31326 31327 28
25062 31326 31328 28
25063 31326 31329 28
25064 31326 31330 28
25065 31331 31332 28
25066 31331 31333 28
25067 31331 31334 28
25068 31331 31335 28
25069 31336 31337 28
25070 31336 31338 28
25071 31336 31339 28
25072 31336 31340 28
25073 31341 31342 28
25074 31341 31343 28
25075 31341 31344 28
25076 31341 31345 28
25077 31346 31347 28
25078 31346 31348 28
25079 31346 31349 28
25080 31346 31350 28
25081 31351 31352 28
25082 31351 31353 28
25083 31351 31354 28
25084 31351 31355 28
25085 31356 31357 28
25086 31356 31358 28
25087 31356 31359 28
25088 31356 31360 28
25089 31361 31362 28
25090 31361 31363 28
25091 31361 31364 28
25092 31361 31365 28
25093 31366 31367 28
25094 31366 31368 28
25095 31366 31369 28
25096 31366 31370 28
25097 31371 31372 28
25098 31371 31373 28
25099 31371 31374 28
25100 31371 31375 28
25101 31376 31377 28
25102 31376 31378 28
25103 31376 31379 28
25104 31376 31380 28
25105 31381 31382 28
25106 31381 31383 28
25107 31381 31384 28
25108 31381 31385 28
25109 31386 31387 28
25110 31386 31388 28
25111 31386 31389 28
25112 31386 31390 28
25113 31391 31392 28
25114 31391 31393 28
25115 31391 31394 28
25116 31391 31395 28
25117 31396 31397 28
25118 31396 31398 28
25119 31396 31399 28
25120 31396 31400 28
25121 31401 31402 28
25122 31401 31403 28
25123 31401 31404 28
25124 31401 31405 28
25125 31406 31407 28
25126 31406 31408 28
25127 31406 31409 28
25128 31406 31410 28
25129 31411 31412 28
25130 31411 31413 28
25131 31411 31414 28
25132 31411 31415 28
25133 31416 31417 28
25134 31416 31418 28
25135 31416 31419 28
25136 31416 31420 28
25137 31421 31422 28
25138 31421 31423 28
25139 31421 31424 28
25140 31421 31425 28
25141 31426 31427 28
25142 31426 31428 28
25143 31426 31429 28
25144 31426 31430 28
25145 31431 31432 28
25146 31431 31433 28
25147 31431 31434 28
25148 31431 31435 28
25149 31436 31437 28
25150 31436 31438 28
25151 31436 31439 28
25152 31436 31440 28
25153 31441 31442 28
25154 31441 31443 28
25155 31441 31444 28
25156 31441 31445 28
25157 31446 31447 28
25158 31446 31448 28
25159 31446 31449 28
25160 31446 31450 28
25161 31451 31452 28
25162 31451 31453 28
25163 31451 31454 28
25164 31451 31455 28
25165 31456 31457 28
25166 31456 31458 28
25167 31456 31459 28
25168 31456 31460 28
25169 31461 31462 28
25170 31461 31463 28
25171 31461 31464 28
25172 31461 31465 28
25173 31466 31467 28
25174 31466 31468 28
25175 31466 31469 28
25176 31466 31470 28
25177 31471 31472 28
25178 31471 31473 28
25179 31471 31474 28
25180 31471 31475 28
25181 31476 31477 28
25182 31476 31478 28
25183 31476 31479 28
25184 31476 31480 28
25185 31481 31482 28
25186 31481 31483 28
25187 31481 31484 28
25188 31481 31485 28
25189 31486 31487 28
25190 31486 31488 28
25191 31486 31489 28
25192 31486 31490 28
25193 31491 31492 28
25194 31491 31493 28
25195 31491 31494 28
25196 31491 31495 28
25197 31496 31497 28
25198 31496 31498 28
25199 31496 31499 28
25200 31496 31500 28
25201 31501 31502 28
25202 31501 31503 28
25203 31501 31504 28
25204 31501 31505 28
25205 31506 31507 28
25206 31506 31508 28
25207 31506 31509 28
25208 31506 31510 28
25209 31511 31512 28
25210 31511 31513 28
25211 31511 31514 28
25212 31511 31515 28
25213 31516 31517 28
25214 31516 31518 28
25215 31516 31519 28
25216 31516 31520 28
25217 31521 31522 28
25218 31521 31523 28
25219 31521 31524 28
25220 31521 31525 28
25221 31526 31527 28
25222 31526 31528 28
25223 31526 31529 28
25224 31526 31530 28
25225 31531 31532 28
25226 31531 31533 28
25227 31531 31534 28
25228 31531 31535 28
25229 31536 31537 28
25230 31536 31538 28
25231 31536 31539 28
25232 31536 31540 28
25233 31541 31542 28
25234 31541 31543 28
25235 31541 31544 28
25236 31541 31545 28
25237 31546 31547 28
25238 31546 31548 28
25239 31546 31549 28
25240 31546 31550 28
25241 31551 31552 28
25242 31551 31553 28
25243 31551 31554 28
25244 31551 31555 28
25245 31556 31557 28
25246 31556 31558 28
25247 31556 31559 28
25248 31556 31560 28
25249 31561 31562 28
25250 31561 31563 28
25251 31561 31564 28
25252 31561 31565 28
25253 31566 31567 28
25254 31566 31568 28
25255 31566 31569 28
25256 31566 31570 28
25257 31571 31572 28
25258 31571 31573 28
25259 31571 31574 28
25260 31571 31575 28
25261 31576 31577 28
25262 31576 31578 28
25263 31576 31579 28
25264 31576 31580 28
25265 31581 31582 28
25266 31581 31583 28
25267 31581 31584 28
25268 31581 31585 28
25269 31586 31587 28
25270 31586 31588 28
25271 31586 31589 28
25272 31586 31590 28
25273 31591 31592 28
25274 31591 31593 28
25275 31591 31594 28
25276 31591 31595 28
25277 31596 31597 28
25278 31596 31598 28
25279 31596 31599 28
25280 31596 31600 28
25281 31601 31602 28
25282 31601 31603 28
25283 31601 31604 28
25284 31601 31605 28
25285 31606 31607 28
25286 31606 31608 28
25287 31606 31609 28
25288 31606 31610 28
25289 31611 31612 28
25290 31611 31613 28
25291 31611 31614 28
25292 31611 31615 28
25293 31616 31617 28
25294 31616 31618 28
25295 31616 31619 28
25296 31616 31620 28
25297 31621 31622 28
25298 31621 31623 28
25299 31621 31624 28
25300 31621 31625 28
25301 31626 31627 28
25302 31626 31628 28
25303 31626 31629 28
25304 31626 31630 28
25305 31631 31632 28
25306 31631 31633 28
25307 31631 31634 28
25308 31631 31635 28
25309 31636 31637 28
25310 31636 31638 28
25311 31636 31639 28
25312 31636 31640 28
25313 31641 31642 28
25314 31641 31643 28
25315 31641 31644 28
25316 31641 31645 28
25317 31646 31647 28
25318 31646 31648 28
25319 31646 31649 28
25320 31646 31650 28
25321 31651 31652 28
25322 31651 31653 28
25323 31651 31654 28
25324 31651 31655 28
25325 31656 31657 28
25326 31656 31658 28
25327 31656 31659 28
25328 31656 31660 28
25329 31661 31662 28
25330 31661 31663 28
25331 31661 31664 28
25332 31661 31665 28
25333 31666 31667 28
25334 31666 31668 28
25335 31666 31669 28
25336 31666 31670 28
25337 31671 31672 28
25338 31671 31673 28
25339 31671 31674 28
25340 31671 31675 28
25341 31676 31677 28
25342 31676 31678 28
25343 31676 31679 28
25344 31676 31680 28
25345 31681 31682 28
25346 31681 31683 28
25347 31681 31684 28
25348 31681 31685 28
25349 31686 31687 28
25350 31686 31688 28
25351 31686 31689 28
25352 31686 31690 28
25353 31691 31692 28
25354 31691 31693 28
25355 31691 31694 28
25356 31691 31695 28
25357 31696 31697 28
25358 31696 31698 28
25359 31696 31699 28
25360 31696 31700 28
25361 31701 31702 28
25362 31701 31703 28
25363 31701 31704 28
25364 31701 31705 28
25365 31706 31707 28
25366 31706 31708 28
25367 31706 31709 28
25368 31706 31710 28
25369 31711 31712 28
25370 31711 31713 28
25371 31711 31714 28
25372 31711 31715 28
25373 31716 31717 28
25374 31716 31718 28
25375 31716 31719 28
25376 31716 31720 28
25377 31721 31722 28
25378 31721 31723 28
25379 31721 31724 28
25380 31721 31725 28
25381 31726 31727 28
25382 31726 31728 28
25383 31726 31729 28
25384 31726 31730 28
25385 31731 31732 28
25386 31731 31733 28
25387 31731 31734 28
25388 31731 31735 28
25389 31736 31737 28
25390 31736 31738 28
25391 31736 31739 28
25392 31736 31740 28
25393 31741 31742 28
25394 31741 31743 28
25395 31741 31744 28
25396 31741 31745 28
25397 31746 31747 28
25398 31746 31748 28
25399 31746 31749 28
25400 31746 31750 28
25401 31751 31752 28
25402 31751 31753 28
25403 31751 31754 28
25404 31751 31755 28
25405 31756 31757 28
25406 31756 31758 28
25407 31756 31759 28
25408 31756 31760 28
25409 31761 31762 28
25410 31761 31763 28
25411 31761 31764 28
25412 31761 31765 28
25413 31766 31767 28
25414 31766 31768 28
25415 31766 31769 28
25416 31766 31770 28
25417 31771 31772 28
25418 31771 31773 28
25419 31771 31774 28
25420 31771 31775 28
25421 31776 31777 28
25422 31776 31778 28
25423 31776 31779 28
25424 31776 31780 28
25425 31781 31782 28
25426 31781 31783 28
25427 31781 31784 28
25428 31781 31785 28
25429 31786 31787 28
25430 31786 31788 28
25431 31786 31789 28
25432 31786 31790 28
25433 31791 31792 28
25434 31791 31793 28
25435 31791 31794 28
25436 31791 31795 28
25437 31796 31797 28
25438 31796 31798 28
25439 31796 31799 28
25440 31796 31800 28
25441 31801 31802 28
25442 31801 31803 28
25443 31801 31804 28
25444 31801 31805 28
25445 31806 31807 28
25446 31806 31808 28
25447 31806 31809 28
25448 31806 31810 28
25449 31811 31812 28
25450 31811 31813 28
25451 31811 31814 28
25452 31811 31815 28
25453 31816 31817 28
25454 31816 31818 28
25455 31816 31819 28
25456 31816 31820 28
25457 31821 31822 28
25458 31821 31823 28
25459 31821 31824 28
25460 31821 31825 28
25461 31826 31827 28
25462 31826 31828 28
25463 31826 31829 28
25464 31826 31830 28
25465 31831 31832 28
25466 31831 31833 28
25467 31831 31834 28
25468 31831 31835 28
25469 31836 31837 28
25470 31836 31838 28
25471 31836 31839 28
25472 31836 31840 28
25473 31841 31842 28
25474 31841 31843 28
25475 31841 31844 28
25476 31841 31845 28
25477 31846 31847 28
25478 31846 31848 28
25479 31846 31849 28
25480 31846 31850 28
25481 31851 31852 28
25482 31851 31853 28
25483 31851 31854 28
25484 31851 31855 28
25485 31856 31857 28
25486 31856 31858 28
25487 31856 31859 28
25488 31856 31860 28
25489 31861 31862 28
25490 31861 31863 28
25491 31861 31864 28
25492 31861 31865 28
25493 31866 31867 28
25494 31866 31868 28
25495 31866 31869 28
25496 31866 31870 28
25497 31871 31872 28
25498 31871 31873 28
25499 31871 31874 28
25500 31871 31875 28
25501 31876 31877 28
25502 31876 31878 28
25503 31876 31879 28
25504 31876 31880 28
25505 31881 31882 28
25506 31881 31883 28
25507 31881 31884 28
25508 31881 31885 28
25509 31886 31887 28
25510 31886 31888 28
25511 31886 31889 28
25512 31886 31890 28
25513 31891 31892 28
25514 31891 31893 28
25515 31891 31894 28
25516 31891 31895 28
25517 31896 31897 28
25518 31896 31898 28
25519 31896 31899 28
25520 31896 31900 28
25521 31901 31902 28
25522 31901 31903 28
25523 31901 31904 28
25524 31901 31905 28
25525 31906 31907 28
25526 31906 31908 28
25527 31906 31909 28
25528 31906 31910 28
25529 31911 31912 28
25530 31911 31913 28
25531 31911 31914 28
25532 31911 31915 28
25533 31916 31917 28
25534 31916 31918 28
25535 31916 31919 28
25536 31916 31920 28
25537 31921 31922 28
25538 31921 31923 28
25539 31921 31924 28
25540 31921 31925 28
25541 31926 31927 28
25542 31926 31928 28
25543 31926 31929 28
25544 31926 31930 28
25545 31931 31932 28
25546 31931 31933 28
25547 31931 31934 28
25548 31931 31935 28
25549 31936 31937 28
25550 31936 31938 28
25551 31936 31939 28
25552 31936 31940 28
25553 31941 31942 28
25554 31941 31943 28
25555 31941 31944 28
25556 31941 31945 28
25557 31946 31947 28
25558 31946 31948 28
25559 31946 31949 28
25560 31946 31950 28
25561 31951 31952 28
25562 31951 31953 28
25563 31951 31954 28
25564 31951 31955 28
25565 31956 31957 28
25566 31956 31958 28
25567 31956 31959 28
25568 31956 31960 28
25569 31961 31962 28
25570 31961 31963 28
25571 31961 31964 28
25572 31961 31965 28
25573 31966 31967 28
25574 31966 31968 28
25575 31966 31969 28
25576 31966 31970 28
25577 31971 31972 28
25578 31971 31973 28
25579 31971 31974 28
25580 31971 31975 28
25581 31976 31977 28
25582 31976 31978 28
25583 31976 31979 28
25584 31976 31980 28
25585 31981 31982 28
25586 31981 31983 28
25587 31981 31984 28
25588 31981 31985 28
25589 31986 31987 28
25590 31986 31988 28
25591 31986 31989 28
25592 31986 31990 28
25593 31991 31992 28
25594 31991 31993 28
25595 31991 31994 28
25596 31991 31995 28
25597 31996 31997 28
25598 31996 31998 28
25599 31996 31999 28
25600 31996 32000 28
25601 32001 32002 28
25602 32001 32003 28
25603 32001 32004 28
25604 32001 32005 28
25605 32006 32007 28
25606 32006 32008 28
25607 32006 32009 28
25608 32006 32010 28
25609 32011 32012 28
25610 32011 32013 28
25611 32011 32014 28
25612 32011 32015 28
25613 32016 32017 28
25614 32016 32018 28
25615 32016 32019 28
25616 32016 32020 28
25617 32021 32022 28
25618 32021 32023 28
25619 32021 32024 28
25620 32021 32025 28
25621 32026 32027 28
25622 32026 32028 28
25623 32026 32029 28
25624 32026 32030 28
25625 32031 32032 28
25626 32031 32033 28
25627 32031 32034 28
25628 32031 32035 28
25629 32036 32037 28
25630 32036 32038 28
25631 32036 32039 28
25632 32036 32040 28
25633 32041 32042 28
25634 32041 32043 28
25635 32041 32044 28
25636 32041 32045 28
25637 32046 32047 28
25638 32046 32048 28
25639 32046 32049 28
25640 32046 32050 28
25641 32051 32052 28
25642 32051 32053 28
25643 32051 32054 28
25644 32051 32055 28
25645 32056 32057 28
25646 32056 32058 28
25647 32056 32059 28
25648 32056 32060 28
25649 32061 32062 28
25650 32061 32063 28
25651 32061 32064 28
25652 32061 32065 28
25653 32066 32067 28
25654 32066 32068 28
25655 32066 32069 28
25656 32066 32070 28
25657 32071 32072 28
25658 32071 32073 28
25659 32071 32074 28
25660 32071 32075 28
25661 32076 32077 28
25662 32076 32078 28
25663 32076 32079 28
25664 32076 32080 28
25665 32081 32082 28
25666 32081 32083 28
25667 32081 32084 28
25668 32081 32085 28
25669 32086 32087 28
25670 32086 32088 28
25671 32086 32089 28
25672 32086 32090 28
25673 32091 32092 28
25674 32091 32093 28
25675 32091 32094 28
25676 32091 32095 28
25677 32096 32097 28
25678 32096 32098 28
25679 32096 32099 28
25680 32096 32100 28
25681 32101 32102 28
25682 32101 32103 28
25683 32101 32104 28
25684 32101 32105 28
25685 32106 32107 28
25686 32106 32108 28
25687 32106 32109 28
25688 32106 32110 28
25689 32111 32112 28
25690 32111 32113 28
25691 32111 32114 28
25692 32111 32115 28
25693 32116 32117 28
25694 32116 32118 28
25695 32116 32119 28
25696 32116 32120 28
25697 32121 32122 28
25698 32121 32123 28
25699 32121 32124 28
25700 32121 32125 28
25701 32126 32127 28
25702 32126 32128 28
25703 32126 32129 28
25704 32126 32130 28
25705 32131 32132 28
25706 32131 32133 28
25707 32131 32134 28
25708 32131 32135 28
25709 32136 32137 28
25710 32136 32138 28
25711 32136 32139 28
25712 32136 32140 28
25713 32141 32142 28
25714 32141 32143 28
25715 32141 32144 28
25716 32141 32145 28
25717 32146 32147 28
25718 32146 32148 28
25719 32146 32149 28
25720 32146 32150 28
25721 32151 32152 28
25722 32151 32153 28
25723 32151 32154 28
25724 32151 32155 28
25725 32156 32157 28
25726 32156 32158 28
25727 32156 32159 28
25728 32156 32160 28
25729 32161 32162 28
25730 32161 32163 28
25731 32161 32164 28
25732 32161 32165 28
25733 32166 32167 28
25734 32166 32168 28
25735 32166 32169 28
25736 32166 32170 28
25737 32171 32172 28
25738 32171 32173 28
25739 32171 32174 28
25740 32171 32175 28
25741 32176 32177 28
25742 32176 32178 28
25743 32176 32179 28
25744 32176 32180 28
25745 32181 32182 28
25746 32181 32183 28
25747 32181 32184 28
25748 32181 32185 28
25749 32186 32187 28
25750 32186 32188 28
25751 32186 32189 28
25752 32186 32190 28
25753 32191 32192 28
25754 32191 32193 28
25755 32191 32194 28
25756 32191 32195 28
25757 32196 32197 28
25758 32196 32198 28
25759 32196 32199 28
25760 32196 32200 28
25761 32201 32202 28
25762 32201 32203 28
25763 32201 32204 28
25764 32201 32205 28
25765 32206 32207 28
25766 32206 32208 28
25767 32206 32209 28
25768 32206 32210 28
25769 32211 32212 28
25770 32211 32213 28
25771 32211 32214 28
25772 32211 32215 28
25773 32216 32217 28
25774 32216 32218 28
25775 32216 32219 28
25776 32216 32220 28
25777 32221 32222 28
25778 32221 32223 28
25779 32221 32224 28
25780 32221 32225 28
25781 32226 32227 28
25782 32226 32228 28
25783 32226 32229 28
25784 32226 32230 28
25785 32231 32232 28
25786 32231 32233 28
25787 32231 32234 28
25788 32231 32235 28
25789 32236 32237 28
25790 32236 32238 28
25791 32236 32239 28
25792 32236 32240 28
25793 32241 32242 28
25794 32241 32243 28
25795 32241 32244 28
25796 32241 32245 28
25797 32246 32247 28
25798 32246 32248 28
25799 32246 32249 28
25800 32246 32250 28
25801 32251 32252 28
25802 32251 32253 28
25803 32251 32254 28
25804 32251 32255 28
25805 32256 32257 28
25806 32256 32258 28
25807 32256 32259 28
25808 32256 32260 28
25809 32261 32262 28
25810 32261 32263 28
25811 32261 32264 28
25812 32261 32265 28
25813 32266 32267 28
25814 32266 32268 28
25815 32266 32269 28
25816 32266 32270 28
25817 32271 32272 28
25818 32271 32273 28
25819 32271 32274 28
25820 32271 32275 28
25821 32276 32277 28
25822 32276 32278 28
25823 32276 32279 28
25824 32276 32280 28
25825 32281 32282 28
25826 32281 32283 28
25827 32281 32284 28
25828 32281 32285 28
25829 32286 32287 28
25830 32286 32288 28
25831 32286 32289 28
25832 32286 32290 28
25833 32291 32292 28
25834 32291 32293 28
25835 32291 32294 28
25836 32291 32295 28
25837 32296 32297 28
25838 32296 32298 28
25839 32296 32299 28
25840 32296 32300 28
25841 32301 32302 28
25842 32301 32303 28
25843 32301 32304 28
25844 32301 32305 28
25845 32306 32307 28
25846 32306 32308 28
25847 32306 32309 28
25848 32306 32310 28
25849 32311 32312 28
25850 32311 32313 28
25851 32311 32314 28
25852 32311 32315 28
25853 32316 32317 28
25854 32316 32318 28
25855 32316 32319 28
25856 32316 32320 28
25857 32321 32322 28
25858 32321 32323 28
25859 32321 32324 28
25860 32321 32325 28
25861 32326 32327 28
25862 32326 32328 28
25863 32326 32329 28
25864 32326 32330 28
25865 32331 32332 28
25866 32331 32333 28
25867 32331 32334 28
25868 32331 32335 28
25869 32336 32337 28
25870 32336 32338 28
25871 32336 32339 28
25872 32336 32340 28
25873 32341 32342 28
25874 32341 32343 28
25875 32341 32344 28
25876 32341 32345 28
25877 32346 32347 28
25878 32346 32348 28
25879 32346 32349 28
25880 32346 32350 28
25881 32351 32352 28
25882 32351 32353 28
25883 32351 32354 28
25884 32351 32355 28
25885 32356 32357 28
25886 32356 32358 28
25887 32356 32359 28
25888 32356 32360 28
25889 32361 32362 28
25890 32361 32363 28
25891 32361 32364 28
25892 32361 32365 28
25893 32366 32367 28
25894 32366 32368 28
25895 32366 32369 28
25896 32366 32370 28
25897 32371 32372 28
25898 32371 32373 28
25899 32371 32374 28
25900 32371 32375 28
25901 32376 32377 28
25902 32376 32378 28
25903 32376 32379 28
25904 32376 32380 28
25905 32381 32382 28
25906 32381 32383 28
25907 32381 32384 28
25908 32381 32385 28
25909 32386 32387 28
25910 32386 32388 28
25911 32386 32389 28
25912 32386 32390 28
25913 32391 32392 28
25914 32391 32393 28
25915 32391 32394 28
25916 32391 32395 28
25917 32396 32397 28
25918 32396 32398 28
25919 32396 32399 28
25920 32396 32400 28
25921 32401 32402 28
25922 32401 32403 28
25923 32401 32404 28
25924 32401 32405 28
25925 32406 32407 28
25926 32406 32408 28
25927 32406 32409 28
25928 32406 32410 28
25929 32411 32412 28
25930 32411 32413 28
25931 32411 32414 28
25932 32411 32415 28
25933 32416 32417 28
25934 32416 32418 28
25935 32416 32419 28
25936 32416 32420 28
25937 32421 32422 28
25938 32421 32423 28
25939 32421 32424 28
25940 32421 32425 28
25941 32426 32427 28
25942 32426 32428 28
25943 32426 32429 28
25944 32426 32430 28
25945 32431 32432 28
25946 32431 32433 28
25947 32431 32434 28
25948 32431 32435 28
25949 32436 32437 28
25950 32436 32438 28
25951 32436 32439 28
25952 32436 32440 28
25953 32441 32442 28
25954 32441 32443 28
25955 32441 32444 28
25956 32441 32445 28
25957 32446 32447 28
25958 32446 32448 28
25959 32446 32449 28
25960 32446 32450 28
25961 32451 32452 28
25962 32451 32453 28
25963 32451 32454 28
25964 32451 32455 28
25965 32456 32457 28
25966 32456 32458 28
25967 32456 32459 28
25968 32456 32460 28
25969 32461 32462 28
25970 32461 32463 28
25971 32461 32464 28
25972 32461 32465 28
25973 32466 32467 28
25974 32466 32468 28
25975 32466 32469 28
25976 32466 32470 28
25977 32471 32472 28
25978 32471 32473 28
25979 32471 32474 28
25980 32471 32475 28
25981 32476 32477 28
25982 32476 32478 28
25983 32476 32479 28
25984 32476 32480 28
25985 32481 32482 28
25986 32481 32483 28
25987 32481 32484 28
25988 32481 32485 28
25989 32486 32487 28
25990 32486 32488 28
25991 32486 32489 28
25992 32486 32490 28
25993 32491 32492 28
25994 32491 32493 28
25995 32491 32494 28
25996 32491 32495 28
25997 32496 32497 28
25998 32496 32498 28
25999 32496 32499 28
26000 32496 32500 28
26001 32501 32502 28
26002 32501 32503 28
26003 32501 32504 28
26004 32501 32505 28
26005 32506 32507 28
26006 32506 32508 28
26007 32506 32509 28
26008 32506 32510 28
26009 32511 32512 28
26010 32511 32513 28
26011 32511 32514 28
26012 32511 32515 28
26013 32516 32517 28
26014 32516 32518 28
26015 32516 32519 28
26016 32516 32520 28
26017 32521 32522 28
26018 32521 32523 28
26019 32521 32524 28
26020 32521 32525 28
26021 32526 32527 28
26022 32526 32528 28
26023 32526 32529 28
26024 32526 32530 28
26025 32531 32532 28
26026 32531 32533 28
26027 32531 32534 28
26028 32531 32535 28
26029 32536 32537 28
26030 32536 32538 28
26031 32536 32539 28
26032 32536 32540 28
26033 32541 32542 28
26034 32541 32543 28
26035 32541 32544 28
26036 32541 32545 28
26037 32546 32547 28
26038 32546 32548 28
26039 32546 32549 28
26040 32546 32550 28
26041 32551 32552 28
26042 32551 32553 28
26043 32551 32554 28
26044 32551 32555 28
26045 32556 32557 28
26046 32556 32558 28
26047 32556 32559 28
26048 32556 32560 28
26049 32561 32562 28
26050 32561 32563 28
26051 32561 32564 28
26052 32561 32565 28
26053 32566 32567 28
26054 32566 32568 28
26055 32566 32569 28
26056 32566 32570 28
26057 32571 32572 28
26058 32571 32573 28
26059 32571 32574 28
26060 32571 32575 28
26061 32576 32577 28
26062 32576 32578 28
26063 32576 32579 28
26064 32576 32580 28
26065 32581 32582 28
26066 32581 32583 28
26067 32581 32584 28
26068 32581 32585 28
26069 32586 32587 28
26070 32586 32588 28
26071 32586 32589 28
26072 32586 32590 28
26073 32591 32592 28
26074 32591 32593 28
26075 32591 32594 28
26076 32591 32595 28
26077 32596 32597 28
26078 32596 32598 28
26079 32596 32599 28
26080 32596 32600 28
26081 32601 32602 28
26082 32601 32603 28
26083 32601 32604 28
26084 32601 32605 28
26085 32606 32607 28
26086 32606 32608 28
26087 32606 32609 28
26088 32606 32610 28
26089 32611 32612 28
26090 32611 32613 28
26091 32611 32614 28
26092 32611 32615 28
26093 32616 32617 28
26094 32616 32618 28
26095 32616 32619 28
26096 32616 32620 28
26097 32621 32622 28
26098 32621 32623 28
26099 32621 32624 28
26100 32621 32625 28
26101 32626 32627 28
26102 32626 32628 28
26103 32626 32629 28
26104 32626 32630 28
26105 32631 32632 28
26106 32631 32633 28
26107 32631 32634 28
26108 32631 32635 28
26109 32636 32637 28
26110 32636 32638 28
26111 32636 32639 28
26112 32636 32640 28
26113 32641 32642 28
26114 32641 32643 28
26115 32641 32644 28
26116 32641 32645 28
26117 32646 32647 28
26118 32646 32648 28
26119 32646 32649 28
26120 32646 32650 28
26121 32651 32652 28
26122 32651 32653 28
26123 32651 32654 28
26124 32651 32655 28
26125 32656 32657 28
26126 32656 32658 28
26127 32656 32659 28
26128 32656 32660 28
26129 32661 32662 28
26130 32661 32663 28
26131 32661 32664 28
26132 32661 32665 28
26133 32666 32667 28
26134 32666 32668 28
26135 32666 32669 28
26136 32666 32670 28
26137 32671 32672 28
26138 32671 32673 28
26139 32671 32674 28
26140 32671 32675 28
26141 32676 32677 28
26142 32676 32678 28
26143 32676 32679 28
26144 32676 32680 28
26145 32681 32682 28
26146 32681 32683 28
26147 32681 32684 28
26148 32681 32685 28
26149 32686 32687 28
26150 32686 32688 28
26151 32686 32689 28
26152 32686 32690 28
26153 32691 32692 28
26154 32691 32693 28
26155 32691 32694 28
26156 32691 32695 28
26157 32696 32697 28
26158 32696 32698 28
26159 32696 32699 28
26160 32696 32700 28
26161 32701 32702 28
26162 32701 32703 28
26163 32701 32704 28
26164 32701 32705 28
26165 32706 32707 28
26166 32706 32708 28
26167 32706 32709 28
26168 32706 32710 28
26169 32711 32712 28
26170 32711 32713 28
26171 32711 32714 28
26172 32711 32715 28
26173 32716 32717 28
26174 32716 32718 28
26175 32716 32719 28
26176 32716 32720 28
26177 32721 32722 28
26178 32721 32723 28
26179 32721 32724 28
26180 32721 32725 28
26181 32726 32727 28
26182 32726 32728 28
26183 32726 32729 28
26184 32726 32730 28
26185 32731 32732 28
26186 32731 32733 28
26187 32731 32734 28
26188 32731 32735 28
26189 32736 32737 28
26190 32736 32738 28
26191 32736 32739 28
26192 32736 32740 28
26193 32741 32742 28
26194 32741 32743 28
26195 32741 32744 28
26196 32741 32745 28
26197 32746 32747 28
26198 32746 32748 28
26199 32746 32749 28
26200 32746 32750 28
26201 32751 32752 28
26202 32751 32753 28
26203 32751 32754 28
26204 32751 32755 28
26205 32756 32757 28
26206 32756 32758 28
26207 32756 32759 28
26208 32756 32760 28
26209 32761 32762 28
26210 32761 32763 28
26211 32761 32764 28
26212 32761 32765 28
26213 32766 32767 28
26214 32766 32768 28
26215 32766 32769 28
26216 32766 32770 28
26217 32771 32772 28
26218 32771 32773 28
26219 32771 32774 28
26220 32771 32775 28
26221 32776 32777 28
26222 32776 32778 28
26223 32776 32779 28
26224 32776 32780 28
26225 32781 32782 28
26226 32781 32783 28
26227 32781 32784 28
26228 32781 32785 28
26229 32786 32787 28
26230 32786 32788 28
26231 32786 32789 28
26232 32786 32790 28
26233 32791 32792 28
26234 32791 32793 28
26235 32791 32794 28
26236 32791 32795 28
26237 32796 32797 28
26238 32796 32798 28
26239 32796 32799 28
26240 32796 32800 28
26241 32801 32802 28
26242 32801 32803 28
26243 32801 32804 28
26244 32801 32805 28
26245 32806 32807 28
26246 32806 32808 28
26247 32806 32809 28
26248 32806 32810 28
26249 32811 32812 28
26250 32811 32813 28
26251 32811 32814 28
26252 32811 32815 28
26253 32816 32817 28
26254 32816 32818 28
26255 32816 32819 28
26256 32816 32820 28
26257 32821 32822 28
26258 32821 32823 28
26259 32821 32824 28
26260 32821 32825 28
26261 32826 32827 28
26262 32826 32828 28
26263 32826 32829 28
26264 32826 32830 28
26265 32831 32832 28
26266 32831 32833 28
26267 32831 32834 28
26268 32831 32835 28
26269 32836 32837 28
26270 32836 32838 28
26271 32836 32839 28
26272 32836 32840 28
26273 32841 32842 28
26274 32841 32843 28
26275 32841 32844 28
26276 32841 32845 28
26277 32846 32847 28
26278 32846 32848 28
26279 32846 32849 28
26280 32846 32850 28
26281 32851 32852 28
26282 32851 32853 28
26283 32851 32854 28
26284 32851 32855 28
26285 32856 32857 28
26286 32856 32858 28
26287 32856 32859 28
26288 32856 32860 28
26289 32861 32862 28
26290 32861 32863 28
26291 32861 32864 28
26292 32861 32865 28
26293 32866 32867 28
26294 32866 32868 28
26295 32866 32869 28
26296 32866 32870 28
26297 32871 32872 28
26298 32871 32873 28
26299 32871 32874 28
26300 32871 32875 28
26301 32876 32877 28
26302 32876 32878 28
26303 32876 32879 28
26304 32876 32880 28
26305 32881 32882 28
26306 32881 32883 28
26307 32881 32884 28
26308 32881 32885 28
26309 32886 32887 28
26310 32886 32888 28
26311 32886 32889 28
26312 32886 32890 28
26313 32891 32892 28
26314 32891 32893 28
26315 32891 32894 28
26316 32891 32895 28
26317 32896 32897 28
26318 32896 32898 28
26319 32896 32899 28
26320 32896 32900 28
26321 32901 32902 28
26322 32901 32903 28
26323 32901 32904 28
26324 32901 32905 28
26325 32906 32907 28
26326 32906 32908 28
26327 32906 32909 28
26328 32906 32910 28
26329 32911 32912 28
26330 32911 32913 28
26331 32911 32914 28
26332 32911 32915 28
26333 32916 32917 28
26334 32916 32918 28
26335 32916 32919 28
26336 32916 32920 28
26337 32921 32922 28
26338 32921 32923 28
26339 32921 32924 28
26340 32921 32925 28
26341 32926 32927 28
26342 32926 32928 28
26343 32926 32929 28
26344 32926 32930 28
26345 32931 32932 28
26346 32931 32933 28
26347 32931 32934 28
26348 32931 32935 28
26349 32936 32937 28
26350 32936 32938 28
26351 32936 32939 28
26352 32936 32940 28
26353 32941 32942 28
26354 32941 32943 28
26355 32941 32944 28
26356 32941 32945 28
26357 32946 32947 28
26358 32946 32948 28
26359 32946 32949 28
26360 32946 32950 28
26361 32951 32952 28
26362 32951 32953 28
26363 32951 32954 28
26364 32951 32955 28
26365 32956 32957 28
26366 32956 32958 28
26367 32956 32959 28
26368 32956 32960 28
26369 32961 32962 28
26370 32961 32963 28
26371 32961 32964 28
26372 32961 32965 28
26373 32966 32967 28
26374 32966 32968 28
26375 32966 32969 28
26376 32966 32970 28
26377 32971 32972 28
26378 32971 32973 28
26379 32971 32974 28
26380 32971 32975 28
26381 32976 32977 28
26382 32976 32978 28
26383 32976 32979 28
26384 32976 32980 28
26385 32981 32982 28
26386 32981 32983 28
26387 32981 32984 28
26388 32981 32985 28
26389 32986 32987 28
26390 32986 32988 28
26391 32986 32989 28
26392 32986 32990 28
26393 32991 32992 28
26394 32991 32993 28
26395 32991 32994 28
26396 32991 32995 28
26397 32996 32997 28
26398 32996 32998 28
26399 32996 32999 28
26400 32996 33000 28
26401 33001 33002 28
26402 33001 33003 28
26403 33001 33004 28
26404 33001 33005 28
26405 33006 33007 28
26406 33006 33008 28
26407 33006 33009 28
26408 33006 33010 28
26409 33011 33012 28
26410 33011 33013 28
26411 33011 33014 28
26412 33011 33015 28
26413 33016 33017 28
26414 33016 33018 28
26415 33016 33019 28
26416 33016 33020 28
26417 33021 33022 28
26418 33021 33023 28
26419 33021 33024 28
26420 33021 33025 28
26421 33026 33027 28
26422 33026 33028 28
26423 33026 33029 28
26424 33026 33030 28
26425 33031 33032 28
26426 33031 33033 28
26427 33031 33034 28
26428 33031 33035 28
26429 33036 33037 28
26430 33036 33038 28
26431 33036 33039 28
26432 33036 33040 28
26433 33041 33042 28
26434 33041 33043 28
26435 33041 33044 28
26436 33041 33045 28
26437 33046 33047 28
26438 33046 33048 28
26439 33046 33049 28
26440 33046 33050 28
26441 33051 33052 28
26442 33051 33053 28
26443 33051 33054 28
26444 33051 33055 28
26445 33056 33057 28
26446 33056 33058 28
26447 33056 33059 28
26448 33056 33060 28
26449 33061 33062 28
26450 33061 33063 28
26451 33061 33064 28
26452 33061 33065 28
26453 33066 33067 28
26454 33066 33068 28
26455 33066 33069 28
26456 33066 33070 28
26457 33071 33072 28
26458 33071 33073 28
26459 33071 33074 28
26460 33071 33075 28
26461 33076 33077 28
26462 33076 33078 28
26463 33076 33079 28
26464 33076 33080 28
26465 33081 33082 28
26466 33081 33083 28
26467 33081 33084 28
26468 33081 33085 28
26469 33086 33087 28
26470 33086 33088 28
26471 33086 33089 28
26472 33086 33090 28
26473 33091 33092 28
26474 33091 33093 28
26475 33091 33094 28
26476 33091 33095 28
26477 33096 33097 28
26478 33096 33098 28
26479 33096 33099 28
26480 33096 33100 28
26481 33101 33102 28
26482 33101 33103 28
26483 33101 33104 28
26484 33101 33105 28
26485 33106 33107 28
26486 33106 33108 28
26487 33106 33109 28
26488 33106 33110 28
26489 33111 33112 28
26490 33111 33113 28
26491 33111 33114 28
26492 33111 33115 28
26493 33116 33117 28
26494 33116 33118 28
26495 33116 33119 28
26496 33116 33120 28
26497 33121 33122 28
26498 33121 33123 28
26499 33121 33124 28
26500 33121 33125 28
26501 33126 33127 28
26502 33126 33128 28
26503 33126 33129 28
26504 33126 33130 28
26505 33131 33132 28
26506 33131 33133 28
26507 33131 33134 28
26508 33131 33135 28
26509 33136 33137 28
26510 33136 33138 28
26511 33136 33139 28
26512 33136 33140 28
26513 33141 33142 28
26514 33141 33143 28
26515 33141 33144 28
26516 33141 33145 28
26517 33146 33147 28
26518 33146 33148 28
26519 33146 33149 28
26520 33146 33150 28
26521 33151 33152 28
26522 33151 33153 28
26523 33151 33154 28
26524 33151 33155 28
26525 33156 33157 28
26526 33156 33158 28
26527 33156 33159 28
26528 33156 33160 28
26529 33161 33162 28
26530 33161 33163 28
26531 33161 33164 28
26532 33161 33165 28
26533 33166 33167 28
26534 33166 33168 28
26535 33166 33169 28
26536 33166 33170 28
26537 33171 33172 28
26538 33171 33173 28
26539 33171 33174 28
26540 33171 33175 28
26541 33176 33177 28
26542 33176 33178 28
26543 33176 33179 28
26544 33176 33180 28
26545 33181 33182 28
26546 33181 33183 28
26547 33181 33184 28
26548 33181 33185 28
26549 33186 33187 28
26550 33186 33188 28
26551 33186 33189 28
26552 33186 33190 28
26553 33191 33192 28
26554 33191 33193 28
26555 33191 33194 28
26556 33191 33195 28
26557 33196 33197 28
26558 33196 33198 28
26559 33196 33199 28
26560 33196 33200 28
26561 33201 33202 28
26562 33201 33203 28
26563 33201 33204 28
26564 33201 33205 28
26565 33206 33207 28
26566 33206 33208 28
26567 33206 33209 28
26568 33206 33210 28
26569 33211 33212 28
26570 33211 33213 28
26571 33211 33214 28
26572 33211 33215 28
26573 33216 33217 28
26574 33216 33218 28
26575 33216 33219 28
26576 33216 33220 28
26577 33221 33222 28
26578 33221 33223 28
26579 33221 33224 28
26580 33221 33225 28
26581 33226 33227 28
26582 33226 33228 28
26583 33226 33229 28
26584 33226 33230 28
26585 33231 33232 28
26586 33231 33233 28
26587 33231 33234 28
26588 33231 33235 28
26589 33236 33237 28
26590 33236 33238 28
26591 33236 33239 28
26592 33236 33240 28
26593 33241 33242 28
26594 33241 33243 28
26595 33241 33244 28
26596 33241 33245 28
26597 33246 33247 28
26598 33246 33248 28
26599 33246 33249 28
26600 33246 33250 28
26601 33251 33252 28
26602 33251 33253 28
26603 33251 33254 28
26604 33251 33255 28
26605 33256 33257 28
26606 33256 33258 28
26607 33256 33259 28
26608 33256 33260 28
26609 33261 33262 28
26610 33261 33263 28
26611 33261 33264 28
26612 33261 33265 28
26613 33266 33267 28
26614 33266 33268 28
26615 33266 33269 28
26616 33266 33270 28
26617 33271 33272 28
26618 33271 33273 28
26619 33271 33274 28
26620 33271 33275 28
26621 33276 33277 28
26622 33276 33278 28
26623 33276 33279 28
26624 33276 33280 28
26625 33281 33282 28
26626 33281 33283 28
26627 33281 33284 28
26628 33281 33285 28
26629 33286 33287 28
26630 33286 33288 28
26631 33286 33289 28
26632 33286 33290 28
26633 33291 33292 28
26634 33291 33293 28
26635 33291 33294 28
26636 33291 33295 28
26637 33296 33297 28
26638 33296 33298 28
26639 33296 33299 28
26640 33296 33300 28
26641 33301 33302 28
26642 33301 33303 28
26643 33301 33304 28
26644 33301 33305 28
26645 33306 33307 28
26646 33306 33308 28
26647 33306 33309 28
26648 33306 33310 28
26649 33311 33312 28
26650 33311 33313 28
26651 33311 33314 28
26652 33311 33315 28
26653 33316 33317 28
26654 33316 33318 28
26655 33316 33319 28
26656 33316 33320 28
26657 33321 33322 28
26658 33321 33323 28
26659 33321 33324 28
26660 33321 33325 28
26661 33326 33327 28
26662 33326 33328 28
26663 33326 33329 28
26664 33326 33330 28
26665 33331 33332 28
26666 33331 33333 28
26667 33331 33334 28
26668 33331 33335 28
26669 33336 33337 28
26670 33336 33338 28
26671 33336 33339 28
26672 33336 33340 28
26673 33341 33342 28
26674 33341 33343 28
26675 33341 33344 28
26676 33341 33345 28
26677 33346 33347 28
26678 33346 33348 28
26679 33346 33349 28
26680 33346 33350 28
26681 33351 33352 28
26682 33351 33353 28
26683 33351 33354 28
26684 33351 33355 28
26685 33356 33357 28
26686 33356 33358 28
26687 33356 33359 28
26688 33356 33360 28
26689 33361 33362 28
26690 33361 33363 28
26691 33361 33364 28
26692 33361 33365 28
26693 33366 33367 28
26694 33366 33368 28
26695 33366 33369 28
26696 33366 33370 28
26697 33371 33372 28
26698 33371 33373 28
26699 33371 33374 28
26700 33371 33375 28
26701 33376 33377 28
26702 33376 33378 28
26703 33376 33379 28
26704 33376 33380 28
26705 33381 33382 28
26706 33381 33383 28
26707 33381 33384 28
26708 33381 33385 28
26709 33386 33387 28
26710 33386 33388 28
26711 33386 33389 28
26712 33386 33390 28
26713 33391 33392 28
26714 33391 33393 28
26715 33391 33394 28
26716 33391 33395 28
26717 33396 33397 28
26718 33396 33398 28
26719 33396 33399 28
26720 33396 33400 28
26721 33401 33402 28
26722 33401 33403 28
26723 33401 33404 28
26724 33401 33405 28
26725 33406 33407 28
26726 33406 33408 28
26727 33406 33409 28
26728 33406 33410 28
26729 33411 33412 28
26730 33411 33413 28
26731 33411 33414 28
26732 33411 33415 28
26733 33416 33417 28
26734 33416 33418 28
26735 33416 33419 28
26736 33416 33420 28
26737 33421 33422 28
26738 33421 33423 28
26739 33421 33424 28
26740 33421 33425 28
26741 33426 33427 28
26742 33426 33428 28
26743 33426 33429 28
26744 33426 33430 28
26745 33431 33432 28
26746 33431 33433 28
26747 33431 33434 28
26748 33431 33435 28
26749 33436 33437 28
26750 33436 33438 28
26751 33436 33439 28
26752 33436 33440 28
26753 33441 33442 28
26754 33441 33443 28
26755 33441 33444 28
26756 33441 33445 28
26757 33446 33447 28
26758 33446 33448 28
26759 33446 33449 28
26760 33446 33450 28
26761 33451 33452 28
26762 33451 33453 28
26763 33451 33454 28
26764 33451 33455 28
26765 33456 33457 28
26766 33456 33458 28
26767 33456 33459 28
26768 33456 33460 28
26769 33461 33462 28
26770 33461 33463 28
26771 33461 33464 28
26772 33461 33465 28
26773 33466 33467 28
26774 33466 33468 28
26775 33466 33469 28
26776 33466 33470 28
26777 33471 33472 28
26778 33471 33473 28
26779 33471 33474 28
26780 33471 33475 28
26781 33476 33477 28
26782 33476 33478 28
26783 33476 33479 28
26784 33476 33480 28
26785 33481 33482 28
26786 33481 33483 28
26787 33481 33484 28
26788 33481 33485 28
26789 33486 33487 28
26790 33486 33488 28
26791 33486 33489 28
26792 33486 33490 28
26793 33491 33492 28
26794 33491 33493 28
26795 33491 33494 28
26796 33491 33495 28
26797 33496 33497 28
26798 33496 33498 28
26799 33496 33499 28
26800 33496 33500 28
26801 33501 33502 28
26802 33501 33503 28
26803 33501 33504 28
26804 33501 33505 28
26805 33506 33507 28
26806 33506 33508 28
26807 33506 33509 28
26808 33506 33510 28
26809 33511 33512 28
26810 33511 33513 28
26811 33511 33514 28
26812 33511 33515 28
26813 33516 33517 28
26814 33516 33518 28
26815 33516 33519 28
26816 33516 33520 28
26817 33521 33522 28
26818 33521 33523 28
26819 33521 33524 28
26820 33521 33525 28
26821 33526 33527 28
26822 33526 33528 28
26823 33526 33529 28
26824 33526 33530 28
26825 33531 33532 28
26826 33531 33533 28
26827 33531 33534 28
26828 33531 33535 28
26829 33536 33537 28
26830 33536 33538 28
26831 33536 33539 28
26832 33536 33540 28
26833 33541 33542 28
26834 33541 33543 28
26835 33541 33544 28
26836 33541 33545 28
26837 33546 33547 28
26838 33546 33548 28
26839 33546 33549 28
26840 33546 33550 28
26841 33551 33552 28
26842 33551 33553 28
26843 33551 33554 28
26844 33551 33555 28
26845 33556 33557 28
26846 33556 33558 28
26847 33556 33559 28
26848 33556 33560 28
26849 33561 33562 28
26850 33561 33563 28
26851 33561 33564 28
26852 33561 33565 28
26853 33566 33567 28
26854 33566 33568 28
26855 33566 33569 28
26856 33566 33570 28
26857 33571 33572 28
26858 33571 33573 28
26859 33571 33574 28
26860 33571 33575 28
26861 33576 33577 28
26862 33576 33578 28
26863 33576 33579 28
26864 33576 33580 28
26865 33581 33582 28
26866 33581 33583 28
26867 33581 33584 28
26868 33581 33585 28
26869 33586 33587 28
26870 33586 33588 28
26871 33586 33589 28
26872 33586 33590 28
26873 33591 33592 28
26874 33591 33593 28
26875 33591 33594 28
26876 33591 33595 28
26877 33596 33597 28
26878 33596 33598 28
26879 33596 33599 28
26880 33596 33600 28
26881 33601 33602 28
26882 33601 33603 28
26883 33601 33604 28
26884 33601 33605 28
26885 33606 33607 28
26886 33606 33608 28
26887 33606 33609 28
26888 33606 33610 28
26889 33611 33612 28
26890 33611 33613 28
26891 33611 33614 28
26892 33611 33615 28
26893 33616 33617 28
26894 33616 33618 28
26895 33616 33619 28
26896 33616 33620 28
26897 33621 33622 28
26898 33621 33623 28
26899 33621 33624 28
26900 33621 33625 28
26901 33626 33627 28
26902 33626 33628 28
26903 33626 33629 28
26904 33626 33630 28
26905 33631 33632 28
26906 33631 33633 28
26907 33631 33634 28
26908 33631 33635 28
26909 33636 33637 28
26910 33636 33638 28
26911 33636 33639 28
26912 33636 33640 28
26913 33641 33642 28
26914 33641 33643 28
26915 33641 33644 28
26916 33641 33645 28
26917 33646 33647 28
26918 33646 33648 28
26919 33646 33649 28
26920 33646 33650 28
26921 33651 33652 28
26922 33651 33653 28
26923 33651 33654 28
26924 33651 33655 28
26925 33656 33657 28
26926 33656 33658 28
26927 33656 33659 28
26928 33656 33660 28
26929 33661 33662 28
26930 33661 33663 28
26931 33661 33664 28
26932 33661 33665 28
26933 33666 33667 28
26934 33666 33668 28
26935 33666 33669 28
26936 33666 33670 28
26937 33671 33672 28
26938 33671 33673 28
26939 33671 33674 28
26940 33671 33675 28
26941 33676 33677 28
26942 33676 33678 28
26943 33676 33679 28
26944 33676 33680 28
26945 33681 33682 28
26946 33681 33683 28
26947 33681 33684 28
26948 33681 33685 28
26949 33686 33687 28
26950 33686 33688 28
26951 33686 33689 28
26952 33686 33690 28
26953 33691 33692 28
26954 33691 33693 28
26955 33691 33694 28
26956 33691 33695 28
26957 33696 33697 28
26958 33696 33698 28
26959 33696 33699 28
26960 33696 33700 28
26961 33701 33702 28
26962 33701 33703 28
26963 33701 33704 28
26964 33701 33705 28
26965 33706 33707 28
26966 33706 33708 28
26967 33706 33709 28
26968 33706 33710 28
26969 33711 33712 28
26970 33711 33713 28
26971 33711 33714 28
26972 33711 33715 28
26973 33716 33717 28
26974 33716 33718 28
26975 33716 33719 28
26976 33716 33720 28
26977 33721 33722 28
26978 33721 33723 28
26979 33721 33724 28
26980 33721 33725 28
26981 33726 33727 28
26982 33726 33728 28
26983 33726 33729 28
26984 33726 33730 28
26985 33731 33732 28
26986 33731 33733 28
26987 33731 33734 28
26988 33731 33735 28
26989 33736 33737 28
26990 33736 33738 28
26991 33736 33739 28
26992 33736 33740 28
26993 33741 33742 28
26994 33741 33743 28
26995 33741 33744 28
26996 33741 33745 28
26997 33746 33747 28
26998 33746 33748 28
26999 33746 33749 28
27000 33746 33750 28
27001 33751 33752 28
27002 33751 33753 28
27003 33751 33754 28
27004 33751 33755 28
27005 33756 33757 28
27006 33756 33758 28
27007 33756 33759 28
27008 33756 33760 28
27009 33761 33762 28
27010 33761 33763 28
27011 33761 33764 28
27012 33761 33765 28
27013 33766 33767 28
27014 33766 33768 28
27015 33766 33769 28
27016 33766 33770 28
27017 33771 33772 28
27018 33771 33773 28
27019 33771 33774 28
27020 33771 33775 28
27021 33776 33777 28
27022 33776 33778 28
27023 33776 33779 28
27024 33776 33780 28
27025 33781 33782 28
27026 33781 33783 28
27027 33781 33784 28
27028 33781 33785 28
27029 33786 33787 28
27030 33786 33788 28
27031 33786 33789 28
27032 33786 33790 28
27033 33791 33792 28
27034 33791 33793 28
27035 33791 33794 28
27036 33791 33795 28
27037 33796 33797 28
27038 33796 33798 28
27039 33796 33799 28
27040 33796 33800 28
27041 33801 33802 28
27042 33801 33803 28
27043 33801 33804 28
27044 33801 33805 28
27045 33806 33807 28
27046 33806 33808 28
27047 33806 33809 28
27048 33806 33810 28
27049 33811 33812 28
27050 33811 33813 28
27051 33811 33814 28
27052 33811 33815 28
27053 33816 33817 28
27054 33816 33818 28
27055 33816 33819 28
27056 33816 33820 28
27057 33821 33822 28
27058 33821 33823 28
27059 33821 33824 28
27060 33821 33825 28
27061 33826 33827 28
27062 33826 33828 28
27063 33826 33829 28
27064 33826 33830 28
27065 33831 33832 28
27066 33831 33833 28
27067 33831 33834 28
27068 33831 33835 28
27069 33836 33837 28
27070 33836 33838 28
27071 33836 33839 28
27072 33836 33840 28
27073 33841 33842 28
27074 33841 33843 28
27075 33841 33844 28
27076 33841 33845 28
27077 33846 33847 28
27078 33846 33848 28
27079 33846 33849 28
27080 33846 33850 28
27081 33851 33852 28
27082 33851 33853 28
27083 33851 33854 28
27084 33851 33855 28
27085 33856 33857 28
27086 33856 33858 28
27087 33856 33859 28
27088 33856 33860 28
27089 33861 33862 28
27090 33861 33863 28
27091 33861 33864 28
27092 33861 33865 28
27093 33866 33867 28
27094 33866 33868 28
27095 33866 33869 28
27096 33866 33870 28
27097 33871 33872 28
27098 33871 33873 28
27099 33871 33874 28
27100 33871 33875 28
27101 33876 33877 28
27102 33876 33878 28
27103 33876 33879 28
27104 33876 33880 28
27105 33881 33882 28
27106 33881 33883 28
27107 33881 33884 28
27108 33881 33885 28
27109 33886 33887 28
27110 33886 33888 28
27111 33886 33889 28
27112 33886 33890 28
27113 33891 33892 28
27114 33891 33893 28
27115 33891 33894 28
27116 33891 33895 28
27117 33896 33897 28
27118 33896 33898 28
27119 33896 33899 28
27120 33896 33900 28
27121 33901 33902 28
27122 33901 33903 28
27123 33901 33904 28
27124 33901 33905 28
27125 33906 33907 28
27126 33906 33908 28
27127 33906 33909 28
27128 33906 33910 28
27129 33911 33912 28
27130 33911 33913 28
27131 33911 33914 28
27132 33911 33915 28
27133 33916 33917 28
27134 33916 33918 28
27135 33916 33919 28
27136 33916 33920 28
27137 33921 33922 28
27138 33921 33923 28
27139 33921 33924 28
27140 33921 33925 28
27141 33926 33927 28
27142 33926 33928 28
27143 33926 33929 28
27144 33926 33930 28
27145 33931 33932 28
27146 33931 33933 28
27147 33931 33934 28
27148 33931 33935 28
27149 33936 33937 28
27150 33936 33938 28
27151 33936 33939 28
27152 33936 33940 28
27153 33941 33942 28
27154 33941 33943 28
27155 33941 33944 28
27156 33941 33945 28
27157 33946 33947 28
27158 33946 33948 28
27159 33946 33949 28
27160 33946 33950 28
27161 33951 33952 28
27162 33951 33953 28
27163 33951 33954 28
27164 33951 33955 28
27165 33956 33957 28
27166 33956 33958 28
27167 33956 33959 28
27168 33956 33960 28
27169 33961 33962 28
27170 33961 33963 28
27171 33961 33964 28
27172 33961 33965 28
27173 33966 33967 28
27174 33966 33968 28
27175 33966 33969 28
27176 33966 33970 28
27177 33971 33972 28
27178 33971 33973 28
27179 33971 33974 28
27180 33971 33975 28
27181 33976 33977 28
27182 33976 33978 28
27183 33976 33979 28
27184 33976 33980 28
27185 33981 33982 28
27186 33981 33983 28
27187 33981 33984 28
27188 33981 33985 28
27189 33986 33987 28
27190 33986 33988 28
27191 33986 33989 28
27192 33986 33990 28
27193 33991 33992 28
27194 33991 33993 28
27195 33991 33994 28
27196 33991 33995 28
27197 33996 33997 28
27198 33996 33998 28
27199 33996 33999 28
27200 33996 34000 28
27201 34001 34002 28
27202 34001 34003 28
27203 34001 34004 28
27204 34001 34005 28
27205 34006 34007 28
27206 34006 34008 28
27207 34006 34009 28
27208 34006 34010 28
27209 34011 34012 28
27210 34011 34013 28
27211 34011 34014 28
27212 34011 34015 28
27213 34016 34017 28
27214 34016 34018 28
27215 34016 34019 28
27216 34016 34020 28
27217 34021 34022 28
27218 34021 34023 28
27219 34021 34024 28
27220 34021 34025 28
27221 34026 34027 28
27222 34026 34028 28
27223 34026 34029 28
27224 34026 34030 28
27225 34031 34032 28
27226 34031 34033 28
27227 34031 34034 28
27228 34031 34035 28
27229 34036 34037 28
27230 34036 34038 28
27231 34036 34039 28
27232 34036 34040 28
27233 34041 34042 28
27234 34041 34043 28
27235 34041 34044 28
27236 34041 34045 28
27237 34046 34047 28
27238 34046 34048 28
27239 34046 34049 28
27240 34046 34050 28
27241 34051 34052 28
27242 34051 34053 28
27243 34051 34054 28
27244 34051 34055 28
27245 34056 34057 28
27246 34056 34058 28
27247 34056 34059 28
27248 34056 34060 28
27249 34061 34062 28
27250 34061 34063 28
27251 34061 34064 28
27252 34061 34065 28
27253 34066 34067 28
27254 34066 34068 28
27255 34066 34069 28
27256 34066 34070 28
27257 34071 34072 28
27258 34071 34073 28
27259 34071 34074 28
27260 34071 34075 28
27261 34076 34077 28
27262 34076 34078 28
27263 34076 34079 28
27264 34076 34080 28
27265 34081 34082 28
27266 34081 34083 28
27267 34081 34084 28
27268 34081 34085 28
27269 34086 34087 28
27270 34086 34088 28
27271 34086 34089 28
27272 34086 34090 28
27273 34091 34092 28
27274 34091 34093 28
27275 34091 34094 28
27276 34091 34095 28
27277 34096 34097 28
27278 34096 34098 28
27279 34096 34099 28
27280 34096 34100 28
27281 34101 34102 28
27282 34101 34103 28
27283 34101 34104 28
27284 34101 34105 28
27285 34106 34107 28
27286 34106 34108 28
27287 34106 34109 28
27288 34106 34110 28
27289 34111 34112 28
27290 34111 34113 28
27291 34111 34114 28
27292 34111 34115 28
27293 34116 34117 28
27294 34116 34118 28
27295 34116 34119 28
27296 34116 34120 28
27297 34121 34122 28
27298 34121 34123 28
27299 34121 34124 28
27300 34121 34125 28
27301 34126 34127 28
27302 34126 34128 28
27303 34126 34129 28
27304 34126 34130 28
27305 34131 34132 28
27306 34131 34133 28
27307 34131 34134 28
27308 34131 34135 28
27309 34136 34137 28
27310 34136 34138 28
27311 34136 34139 28
27312 34136 34140 28
27313 34141 34142 28
27314 34141 34143 28
27315 34141 34144 28
27316 34141 34145 28
27317 34146 34147 28
27318 34146 34148 28
27319 34146 34149 28
27320 34146 34150 28
27321 34151 34152 28
27322 34151 34153 28
27323 34151 34154 28
27324 34151 34155 28
27325 34156 34157 28
27326 34156 34158 28
27327 34156 34159 28
27328 34156 34160 28
27329 34161 34162 28
27330 34161 34163 28
27331 34161 34164 28
27332 34161 34165 28
27333 34166 34167 28
27334 34166 34168 28
27335 34166 34169 28
27336 34166 34170 28
27337 34171 34172 28
27338 34171 34173 28
27339 34171 34174 28
27340 34171 34175 28
27341 34176 34177 28
27342 34176 34178 28
27343 34176 34179 28
27344 34176 34180 28
27345 34181 34182 28
27346 34181 34183 28
27347 34181 34184 28
27348 34181 34185 28
27349 34186 34187 28
27350 34186 34188 28
27351 34186 34189 28
27352 34186 34190 28
27353 34191 34192 28
27354 34191 34193 28
27355 34191 34194 28
27356 34191 34195 28
27357 34196 34197 28
27358 34196 34198 28
27359 34196 34199 28
27360 34196 34200 28
27361 34201 34202 28
27362 34201 34203 28
27363 34201 34204 28
27364 34201 34205 28
27365 34206 34207 28
27366 34206 34208 28
27367 34206 34209 28
27368 34206 34210 28
27369 34211 34212 28
27370 34211 34213 28
27371 34211 34214 28
27372 34211 34215 28
27373 34216 34217 28
27374 34216 34218 28
27375 34216 34219 28
27376 34216 34220 28
27377 34221 34222 28
27378 34221 34223 28
27379 34221 34224 28
27380 34221 34225 28
27381 34226 34227 28
27382 34226 34228 28
27383 34226 34229 28
27384 34226 34230 28
27385 34231 34232 28
27386 34231 34233 28
27387 34231 34234 28
27388 34231 34235 28
27389 34236 34237 28
27390 34236 34238 28
27391 34236 34239 28
27392 34236 34240 28
27393 34241 34242 28
27394 34241 34243 28
27395 34241 34244 28
27396 34241 34245 28
27397 34246 34247 28
27398 34246 34248 28
27399 34246 34249 28
27400 34246 34250 28
27401 34251 34252 28
27402 34251 34253 28
27403 34251 34254 28
27404 34251 34255 28
27405 34256 34257 28
27406 34256 34258 28
27407 34256 34259 28
27408 34256 34260 28
27409 34261 34262 28
27410 34261 34263 28
27411 34261 34264 28
27412 34261 34265 28
27413 34266 34267 28
27414 34266 34268 28
27415 34266 34269 28
27416 34266 34270 28
27417 34271 34272 28
27418 34271 34273 28
27419 34271 34274 28
27420 34271 34275 28
27421 34276 34277 28
27422 34276 34278 28
27423 34276 34279 28
27424 34276 34280 28
27425 34281 34282 28
27426 34281 34283 28
27427 34281 34284 28
27428 34281 34285 28
27429 34286 34287 28
27430 34286 34288 28
27431 34286 34289 28
27432 34286 34290 28
27433 34291 34292 28
27434 34291 34293 28
27435 34291 34294 28
27436 34291 34295 28
27437 34296 34297 28
27438 34296 34298 28
27439 34296 34299 28
27440 34296 34300 28
27441 34301 34302 28
27442 34301 34303 28
27443 34301 34304 28
27444 34301 34305 28
27445 34306 34307 28
27446 34306 34308 28
27447 34306 34309 28
27448 34306 34310 28
27449 34311 34312 28
27450 34311 34313 28
27451 34311 34314 28
27452 34311 34315 28
27453 34316 34317 28
27454 34316 34318 28
27455 34316 34319 28
27456 34316 34320 28
27457 34321 34322 28
27458 34321 34323 28
27459 34321 34324 28
27460 34321 34325 28
27461 34326 34327 28
27462 34326 34328 28
27463 34326 34329 28
27464 34326 34330 28
27465 34331 34332 28
27466 34331 34333 28
27467 34331 34334 28
27468 34331 34335 28
27469 34336 34337 28
27470 34336 34338 28
27471 34336 34339 28
27472 34336 34340 28
27473 34341 34342 28
27474 34341 34343 28
27475 34341 34344 28
27476 34341 34345 28
27477 34346 34347 28
27478 34346 34348 28
27479 34346 34349 28
27480 34346 34350 28
27481 34351 34352 28
27482 34351 34353 28
27483 34351 34354 28
27484 34351 34355 28
27485 34356 34357 28
27486 34356 34358 28
27487 34356 34359 28
27488 34356 34360 28
27489 34361 34362 28
27490 34361 34363 28
27491 34361 34364 28
27492 34361 34365 28
27493 34366 34367 28
27494 34366 34368 28
27495 34366 34369 28
27496 34366 34370 28
27497 34371 34372 28
27498 34371 34373 28
27499 34371 34374 28
27500 34371 34375 28
27501 34376 34377 28
27502 34376 34378 28
27503 34376 34379 28
27504 34376 34380 28
27505 34381 34382 28
27506 34381 34383 28
27507 34381 34384 28
27508 34381 34385 28
27509 34386 34387 28
27510 34386 34388 28
27511 34386 34389 28
27512 34386 34390 28
27513 34391 34392 28
27514 34391 34393 28
27515 34391 34394 28
27516 34391 34395 28
27517 34396 34397 28
27518 34396 34398 28
27519 34396 34399 28
27520 34396 34400 28
27521 34401 34402 28
27522 34401 34403 28
27523 34401 34404 28
27524 34401 34405 28
27525 34406 34407 28
27526 34406 34408 28
27527 34406 34409 28
27528 34406 34410 28
27529 34411 34412 28
27530 34411 34413 28
27531 34411 34414 28
27532 34411 34415 28
27533 34416 34417 28
27534 34416 34418 28
27535 34416 34419 28
27536 34416 34420 28
27537 34421 34422 28
27538 34421 34423 28
27539 34421 34424 28
27540 34421 34425 28
27541 34426 34427 28
27542 34426 34428 28
27543 34426 34429 28
27544 34426 34430 28
27545 34431 34432 28
27546 34431 34433 28
27547 34431 34434 28
27548 34431 34435 28
27549 34436 34437 28
27550 34436 34438 28
27551 34436 34439 28
27552 34436 34440 28
27553 34441 34442 28
27554 34441 34443 28
27555 34441 34444 28
27556 34441 34445 28
27557 34446 34447 28
27558 34446 34448 28
27559 34446 34449 28
27560 34446 34450 28
27561 34451 34452 28
27562 34451 34453 28
27563 34451 34454 28
27564 34451 34455 28
27565 34456 34457 28
27566 34456 34458 28
27567 34456 34459 28
27568 34456 34460 28
27569 34461 34462 28
27570 34461 34463 28
27571 34461 34464 28
27572 34461 34465 28
27573 34466 34467 28
27574 34466 34468 28
27575 34466 34469 28
27576 34466 34470 28
27577 34471 34472 28
27578 34471 34473 28
27579 34471 34474 28
27580 34471 34475 28
27581 34476 34477 28
27582 34476 34478 28
27583 34476 34479 28
27584 34476 34480 28
27585 34481 34482 28
27586 34481 34483 28
27587 34481 34484 28
27588 34481 34485 28
27589 34486 34487 28
27590 34486 34488 28
27591 34486 34489 28
27592 34486 34490 28
27593 34491 34492 28
27594 34491 34493 28
27595 34491 34494 28
27596 34491 34495 28
27597 34496 34497 28
27598 34496 34498 28
27599 34496 34499 28
27600 34496 34500 28
27601 34501 34502 28
27602 34501 34503 28
27603 34501 34504 28
27604 34501 34505 28
27605 34506 34507 28
27606 34506 34508 28
27607 34506 34509 28
27608 34506 34510 28
27609 34511 34512 28
27610 34511 34513 28
27611 34511 34514 28
27612 34511 34515 28
27613 34516 34517 28
27614 34516 34518 28
27615 34516 34519 28
27616 34516 34520 28
27617 34521 34522 28
27618 34521 34523 28
27619 34521 34524 28
27620 34521 34525 28
27621 34526 34527 28
27622 34526 34528 28
27623 34526 34529 28
27624 34526 34530 28
27625 34531 34532 28
27626 34531 34533 28
27627 34531 34534 28
27628 34531 34535 28
27629 34536 34537 28
27630 34536 34538 28
27631 34536 34539 28
27632 34536 34540 28
27633 34541 34542 28
27634 34541 34543 28
27635 34541 34544 28
27636 34541 34545 28
27637 34546 34547 28
27638 34546 34548 28
27639 34546 34549 28
27640 34546 34550 28
27641 34551 34552 28
27642 34551 34553 28
27643 34551 34554 28
27644 34551 34555 28
27645 34556 34557 28
27646 34556 34558 28
27647 34556 34559 28
27648 34556 34560 28
27649 34561 34562 28
27650 34561 34563 28
27651 34561 34564 28
27652 34561 34565 28
27653 34566 34567 28
27654 34566 34568 28
27655 34566 34569 28
27656 34566 34570 28
27657 34571 34572 28
27658 34571 34573 28
27659 34571 34574 28
27660 34571 34575 28
27661 34576 34577 28
27662 34576 34578 28
27663 34576 34579 28
27664 34576 34580 28
27665 34581 34582 28
27666 34581 34583 28
27667 34581 34584 28
27668 34581 34585 28
27669 34586 34587 28
27670 34586 34588 28
27671 34586 34589 28
27672 34586 34590 28
27673 34591 34592 28
27674 34591 34593 28
27675 34591 34594 28
27676 34591 34595 28
27677 34596 34597 28
27678 34596 34598 28
27679 34596 34599 28
27680 34596 34600 28
27681 34601 34602 28
27682 34601 34603 28
27683 34601 34604 28
27684 34601 34605 28
27685 34606 34607 28
27686 34606 34608 28
27687 34606 34609 28
27688 34606 34610 28
27689 34611 34612 28
27690 34611 34613 28
27691 34611 34614 28
27692 34611 34615 28
27693 34616 34617 28
27694 34616 34618 28
27695 34616 34619 28
27696 34616 34620 28
27697 34621 34622 28
27698 34621 34623 28
27699 34621 34624 28
27700 34621 34625 28
27701 34626 34627 28
27702 34626 34628 28
27703 34626 34629 28
27704 34626 34630 28
27705 34631 34632 28
27706 34631 34633 28
27707 34631 34634 28
27708 34631 34635 28
27709 34636 34637 28
27710 34636 34638 28
27711 34636 34639 28
27712 34636 34640 28
27713 34641 34642 28
27714 34641 34643 28
27715 34641 34644 28
27716 34641 34645 28
27717 34646 34647 28
27718 34646 34648 28
27719 34646 34649 28
27720 34646 34650 28
27721 34651 34652 28
27722 34651 34653 28
27723 34651 34654 28
27724 34651 34655 28
27725 34656 34657 28
27726 34656 34658 28
27727 34656 34659 28
27728 34656 34660 28
27729 34661 34662 28
27730 34661 34663 28
27731 34661 34664 28
27732 34661 34665 28
27733 34666 34667 28
27734 34666 34668 28
27735 34666 34669 28
27736 34666 34670 28
27737 34671 34672 28
27738 34671 34673 28
27739 34671 34674 28
27740 34671 34675 28
27741 34676 34677 28
27742 34676 34678 28
27743 34676 34679 28
27744 34676 34680 28
27745 34681 34682 28
27746 34681 34683 28
27747 34681 34684 28
27748 34681 34685 28
27749 34686 34687 28
27750 34686 34688 28
27751 34686 34689 28
27752 34686 34690 28
27753 34691 34692 28
27754 34691 34693 28
27755 34691 34694 28
27756 34691 34695 28
27757 34696 34697 28
27758 34696 34698 28
27759 34696 34699 28
27760 34696 34700 28
27761 34701 34702 28
27762 34701 34703 28
27763 34701 34704 28
27764 34701 34705 28
27765 34706 34707 28
27766 34706 34708 28
27767 34706 34709 28
27768 34706 34710 28
27769 34711 34712 28
27770 34711 34713 28
27771 34711 34714 28
27772 34711 34715 28
27773 34716 34717 28
27774 34716 34718 28
27775 34716 34719 28
27776 34716 34720 28
27777 34721 34722 28
27778 34721 34723 28
27779 34721 34724 28
27780 34721 34725 28
27781 34726 34727 28
27782 34726 34728 28
27783 34726 34729 28
27784 34726 34730 28
27785 34731 34732 28
27786 34731 34733 28
27787 34731 34734 28
27788 34731 34735 28
27789 34736 34737 28
27790 34736 34738 28
27791 34736 34739 28
27792 34736 34740 28
27793 34741 34742 28
27794 34741 34743 28
27795 34741 34744 28
27796 34741 34745 28
27797 34746 34747 28
27798 34746 34748 28
27799 34746 34749 28
27800 34746 34750 28
27801 34751 34752 28
27802 34751 34753 28
27803 34751 34754 28
27804 34751 34755 28
27805 34756 34757 28
27806 34756 34758 28
27807 34756 34759 28
27808 34756 34760 28
27809 34761 34762 28
27810 34761 34763 28
27811 34761 34764 28
27812 34761 34765 28
27813 34766 34767 28
27814 34766 34768 28
27815 34766 34769 28
27816 34766 34770 28
27817 34771 34772 28
27818 34771 34773 28
27819 34771 34774 28
27820 34771 34775 28
27821 34776 34777 28
27822 34776 34778 28
27823 34776 34779 28
27824 34776 34780 28
27825 34781 34782 28
27826 34781 34783 28
27827 34781 34784 28
27828 34781 34785 28
27829 34786 34787 28
27830 34786 34788 28
27831 34786 34789 28
27832 34786 34790 28
27833 34791 34792 28
27834 34791 34793 28
27835 34791 34794 28
27836 34791 34795 28
27837 34796 34797 28
27838 34796 34798 28
27839 34796 34799 28
27840 34796 34800 28
27841 34801 34802 28
27842 34801 34803 28
27843 34801 34804 28
27844 34801 34805 28
27845 34806 34807 28
27846 34806 34808 28
27847 34806 34809 28
27848 34806 34810 28
27849 34811 34812 28
27850 34811 34813 28
27851 34811 34814 28
27852 34811 34815 28
27853 34816 34817 28
27854 34816 34818 28
27855 34816 34819 28
27856 34816 34820 28
27857 34821 34822 28
27858 34821 34823 28
27859 34821 34824 28
27860 34821 34825 28
27861 34826 34827 28
27862 34826 34828 28
27863 34826 34829 28
27864 34826 34830 28
27865 34831 34832 28
27866 34831 34833 28
27867 34831 34834 28
27868 34831 34835 28
27869 34836 34837 28
27870 34836 34838 28
27871 34836 34839 28
27872 34836 34840 28
27873 34841 34842 28
27874 34841 34843 28
27875 34841 34844 28
27876 34841 34845 28
27877 34846 34847 28
27878 34846 34848 28
27879 34846 34849 28
27880 34846 34850 28
27881 34851 34852 28
27882 34851 34853 28
27883 34851 34854 28
27884 34851 34855 28
27885 34856 34857 28
27886 34856 34858 28
27887 34856 34859 28
27888 34856 34860 28
27889 34861 34862 28
27890 34861 34863 28
27891 34861 34864 28
27892 34861 34865 28
27893 34866 34867 28
27894 34866 34868 28
27895 34866 34869 28
27896 34866 34870 28
27897 34871 34872 28
27898 34871 34873 28
27899 34871 34874 28
27900 34871 34875 28
27901 34876 34877 28
27902 34876 34878 28
27903 34876 34879 28
27904 34876 34880 28
27905 34881 34882 28
27906 34881 34883 28
27907 34881 34884 28
27908 34881 34885 28
27909 34886 34887 28
27910 34886 34888 28
27911 34886 34889 28
27912 34886 34890 28
27913 34891 34892 28
27914 34891 34893 28
27915 34891 34894 28
27916 34891 34895 28
27917 34896 34897 28
27918 34896 34898 28
27919 34896 34899 28
27920 34896 34900 28
27921 34901 34902 28
27922 34901 34903 28
27923 34901 34904 28
27924 34901 34905 28
27925 34906 34907 28
27926 34906 34908 28
27927 34906 34909 28
27928 34906 34910 28
27929 34911 34912 28
27930 34911 34913 28
27931 34911 34914 28
27932 34911 34915 28
27933 34916 34917 28
27934 34916 34918 28
27935 34916 34919 28
27936 34916 34920 28
27937 34921 34922 28
27938 34921 34923 28
27939 34921 34924 28
27940 34921 34925 28
27941 34926 34927 28
27942 34926 34928 28
27943 34926 34929 28
27944 34926 34930 28
27945 34931 34932 28
27946 34931 34933 28
27947 34931 34934 28
27948 34931 34935 28
27949 34936 34937 28
27950 34936 34938 28
27951 34936 34939 28
27952 34936 34940 28
27953 34941 34942 28
27954 34941 34943 28
27955 34941 34944 28
27956 34941 34945 28
27957 34946 34947 28
27958 34946 34948 28
27959 34946 34949 28
27960 34946 34950 28
27961 34951 34952 28
27962 34951 34953 28
27963 34951 34954 28
27964 34951 34955 28
27965 34956 34957 28
27966 34956 34958 28
27967 34956 34959 28
27968 34956 34960 28
27969 34961 34962 28
27970 34961 34963 28
27971 34961 34964 28
27972 34961 34965 28
27973 34966 34967 28
27974 34966 34968 28
27975 34966 34969 28
27976 34966 34970 28
27977 34971 34972 28
27978 34971 34973 28
27979 34971 34974 28
27980 34971 34975 28
27981 34976 34977 28
27982 34976 34978 28
27983 34976 34979 28
27984 34976 34980 28
27985 34981 34982 28
27986 34981 34983 28
27987 34981 34984 28
27988 34981 34985 28
27989 34986 34987 28
27990 34986 34988 28
27991 34986 34989 28
27992 34986 34990 28
27993 34991 34992 28
27994 34991 34993 28
27995 34991 34994 28
27996 34991 34995 28
27997 34996 34997 28
27998 34996 34998 28
27999 34996 34999 28
28000 34996 35000 28
28001 35001 35002 28
28002 35001 35003 28
28003 35001 35004 28
28004 35001 35005 28
28005 35006 35007 28
28006 35006 35008 28
28007 35006 35009 28
28008 35006 35010 28
28009 35011 35012 28
28010 35011 35013 28
28011 35011 35014 28
28012 35011 35015 28
28013 35016 35017 28
28014 35016 35018 28
28015 35016 35019 28
28016 35016 35020 28
28017 35021 35022 28
28018 35021 35023 28
28019 35021 35024 28
28020 35021 35025 28
28021 35026 35027 28
28022 35026 35028 28
28023 35026 35029 28
28024 35026 35030 28
28025 35031 35032 28
28026 35031 35033 28
28027 35031 35034 28
28028 35031 35035 28
28029 35036 35037 28
28030 35036 35038 28
28031 35036 35039 28
28032 35036 35040 28
28033 35041 35042 28
28034 35041 35043 28
28035 35041 35044 28
28036 35041 35045 28
28037 35046 35047 28
28038 35046 35048 28
28039 35046 35049 28
28040 35046 35050 28
28041 35051 35052 28
28042 35051 35053 28
28043 35051 35054 28
28044 35051 35055 28
28045 35056 35057 28
28046 35056 35058 28
28047 35056 35059 28
28048 35056 35060 28
28049 35061 35062 28
28050 35061 35063 28
28051 35061 35064 28
28052 35061 35065 28
28053 35066 35067 28
28054 35066 35068 28
28055 35066 35069 28
28056 35066 35070 28
28057 35071 35072 28
28058 35071 35073 28
28059 35071 35074 28
28060 35071 35075 28
28061 35076 35077 28
28062 35076 35078 28
28063 35076 35079 28
28064 35076 35080 28
28065 35081 35082 28
28066 35081 35083 28
28067 35081 35084 28
28068 35081 35085 28
28069 35086 35087 28
28070 35086 35088 28
28071 35086 35089 28
28072 35086 35090 28
28073 35091 35092 28
28074 35091 35093 28
28075 35091 35094 28
28076 35091 35095 28
28077 35096 35097 28
28078 35096 35098 28
28079 35096 35099 28
28080 35096 35100 28
28081 35101 35102 28
28082 35101 35103 28
28083 35101 35104 28
28084 35101 35105 28
28085 35106 35107 28
28086 35106 35108 28
28087 35106 35109 28
28088 35106 35110 28
28089 35111 35112 28
28090 35111 35113 28
28091 35111 35114 28
28092 35111 35115 28
28093 35116 35117 28
28094 35116 35118 28
28095 35116 35119 28
28096 35116 35120 28
28097 35121 35122 28
28098 35121 35123 28
28099 35121 35124 28
28100 35121 35125 28
28101 35126 35127 28
28102 35126 35128 28
28103 35126 35129 28
28104 35126 35130 28
28105 35131 35132 28
28106 35131 35133 28
28107 35131 35134 28
28108 35131 35135 28
28109 35136 35137 28
28110 35136 35138 28
28111 35136 35139 28
28112 35136 35140 28
28113 35141 35142 28
28114 35141 35143 28
28115 35141 35144 28
28116 35141 35145 28
28117 35146 35147 28
28118 35146 35148 28
28119 35146 35149 28
28120 35146 35150 28
28121 35151 35152 28
28122 35151 35153 28
28123 35151 35154 28
28124 35151 35155 28
28125 35156 35157 28
28126 35156 35158 28
28127 35156 35159 28
28128 35156 35160 28
28129 35161 35162 28
28130 35161 35163 28
28131 35161 35164 28
28132 35161 35165 28
28133 35166 35167 28
28134 35166 35168 28
28135 35166 35169 28
28136 35166 35170 28
28137 35171 35172 28
28138 35171 35173 28
28139 35171 35174 28
28140 35171 35175 28
28141 35176 35177 28
28142 35176 35178 28
28143 35176 35179 28
28144 35176 35180 28
28145 35181 35182 28
28146 35181 35183 28
28147 35181 35184 28
28148 35181 35185 28
28149 35186 35187 28
28150 35186 35188 28
28151 35186 35189 28
28152 35186 35190 28
28153 35191 35192 28
28154 35191 35193 28
28155 35191 35194 28
28156 35191 35195 28
28157 35196 35197 28
28158 35196 35198 28
28159 35196 35199 28
28160 35196 35200 28
28161 35201 35202 28
28162 35201 35203 28
28163 35201 35204 28
28164 35201 35205 28
28165 35206 35207 28
28166 35206 35208 28
28167 35206 35209 28
28168 35206 35210 28
28169 35211 35212 28
28170 35211 35213 28
28171 35211 35214 28
28172 35211 35215 28
28173 35216 35217 28
28174 35216 35218 28
28175 35216 35219 28
28176 35216 35220 28
28177 35221 35222 28
28178 35221 35223 28
28179 35221 35224 28
28180 35221 35225 28
28181 35226 35227 28
28182 35226 35228 28
28183 35226 35229 28
28184 35226 35230 28
28185 35231 35232 28
28186 35231 35233 28
28187 35231 35234 28
28188 35231 35235 28
28189 35236 35237 28
28190 35236 35238 28
28191 35236 35239 28
28192 35236 35240 28
28193 35241 35242 28
28194 35241 35243 28
28195 35241 35244 28
28196 35241 35245 28
28197 35246 35247 28
28198 35246 35248 28
28199 35246 35249 28
28200 35246 35250 28
28201 35251 35252 28
28202 35251 35253 28
28203 35251 35254 28
28204 35251 35255 28
28205 35256 35257 28
28206 35256 35258 28
28207 35256 35259 28
28208 35256 35260 28
28209 35261 35262 28
28210 35261 35263 28
28211 35261 35264 28
28212 35261 35265 28
28213 35266 35267 28
28214 35266 35268 28
28215 35266 35269 28
28216 35266 35270 28
28217 35271 35272 28
28218 35271 35273 28
28219 35271 35274 28
28220 35271 35275 28
28221 35276 35277 28
28222 35276 35278 28
28223 35276 35279 28
28224 35276 35280 28
28225 35281 35282 28
28226 35281 35283 28
28227 35281 35284 28
28228 35281 35285 28
28229 35286 35287 28
28230 35286 35288 28
28231 35286 35289 28
28232 35286 35290 28
28233 35291 35292 28
28234 35291 35293 28
28235 35291 35294 28
28236 35291 35295 28
28237 35296 35297 28
28238 35296 35298 28
28239 35296 35299 28
28240 35296 35300 28
28241 35301 35302 28
28242 35301 35303 28
28243 35301 35304 28
28244 35301 35305 28
28245 35306 35307 28
28246 35306 35308 28
28247 35306 35309 28
28248 35306 35310 28
28249 35311 35312 28
28250 35311 35313 28
28251 35311 35314 28
28252 35311 35315 28
28253 35316 35317 28
28254 35316 35318 28
28255 35316 35319 28
28256 35316 35320 28
28257 35321 35322 28
28258 35321 35323 28
28259 35321 35324 28
28260 35321 35325 28
28261 35326 35327 28
28262 35326 35328 28
28263 35326 35329 28
28264 35326 35330 28
28265 35331 35332 28
28266 35331 35333 28
28267 35331 35334 28
28268 35331 35335 28
28269 35336 35337 28
28270 35336 35338 28
28271 35336 35339 28
28272 35336 35340 28
28273 35341 35342 28
28274 35341 35343 28
28275 35341 35344 28
28276 35341 35345 28
28277 35346 35347 28
28278 35346 35348 28
28279 35346 35349 28
28280 35346 35350 28
28281 35351 35352 28
28282 35351 35353 28
28283 35351 35354 28
28284 35351 35355 28
28285 35356 35357 28
28286 35356 35358 28
28287 35356 35359 28
28288 35356 35360 28
28289 35361 35362 28
28290 35361 35363 28
28291 35361 35364 28
28292 35361 35365 28
28293 35366 35367 28
28294 35366 35368 28
28295 35366 35369 28
28296 35366 35370 28
28297 35371 35372 28
28298 35371 35373 28
28299 35371 35374 28
28300 35371 35375 28
28301 35376 35377 28
28302 35376 35378 28
28303 35376 35379 28
28304 35376 35380 28
28305 35381 35382 28
28306 35381 35383 28
28307 35381 35384 28
28308 35381 35385 28
28309 35386 35387 28
28310 35386 35388 28
28311 35386 35389 28
28312 35386 35390 28
28313 35391 35392 28
28314 35391 35393 28
28315 35391 35394 28
28316 35391 35395 28
28317 35396 35397 28
28318 35396 35398 28
28319 35396 35399 28
28320 35396 35400 28
28321 35401 35402 28
28322 35401 35403 28
28323 35401 35404 28
28324 35401 35405 28
28325 35406 35407 28
28326 35406 35408 28
28327 35406 35409 28
28328 35406 35410 28
28329 35411 35412 28
28330 35411 35413 28
28331 35411 35414 28
28332 35411 35415 28
28333 35416 35417 28
28334 35416 35418 28
28335 35416 35419 28
28336 35416 35420 28
28337 35421 35422 28
28338 35421 35423 28
28339 35421 35424 28
28340 35421 35425 28
28341 35426 35427 28
28342 35426 35428 28
28343 35426 35429 28
28344 35426 35430 28
28345 35431 35432 28
28346 35431 35433 28
28347 35431 35434 28
28348 35431 35435 28
28349 35436 35437 28
28350 35436 35438 28
28351 35436 35439 28
28352 35436 35440 28
28353 35441 35442 28
28354 35441 35443 28
28355 35441 35444 28
28356 35441 35445 28
28357 35446 35447 28
28358 35446 35448 28
28359 35446 35449 28
28360 35446 35450 28
28361 35451 35452 28
28362 35451 35453 28
28363 35451 35454 28
28364 35451 35455 28
28365 35456 35457 28
28366 35456 35458 28
28367 35456 35459 28
28368 35456 35460 28
28369 35461 35462 28
28370 35461 35463 28
28371 35461 35464 28
28372 35461 35465 28
28373 35466 35467 28
28374 35466 35468 28
28375 35466 35469 28
28376 35466 35470 28
28377 35471 35472 28
28378 35471 35473 28
28379 35471 35474 28
28380 35471 35475 28
28381 35476 35477 28
28382 35476 35478 28
28383 35476 35479 28
28384 35476 35480 28
28385 35481 35482 28
28386 35481 35483 28
28387 35481 35484 28
28388 35481 35485 28
28389 35486 35487 28
28390 35486 35488 28
28391 35486 35489 28
28392 35486 35490 28
28393 35491 35492 28
28394 35491 35493 28
28395 35491 35494 28
28396 35491 35495 28
28397 35496 35497 28
28398 35496 35498 28
28399 35496 35499 28
28400 35496 35500 28
28401 35501 35502 28
28402 35501 35503 28
28403 35501 35504 28
28404 35501 35505 28
28405 35506 35507 28
28406 35506 35508 28
28407 35506 35509 28
28408 35506 35510 28
28409 35511 35512 28
28410 35511 35513 28
28411 35511 35514 28
28412 35511 35515 28
28413 35516 35517 28
28414 35516 35518 28
28415 35516 35519 28
28416 35516 35520 28
28417 35521 35522 28
28418 35521 35523 28
28419 35521 35524 28
28420 35521 35525 28
28421 35526 35527 28
28422 35526 35528 28
28423 35526 35529 28
28424 35526 35530 28
28425 35531 35532 28
28426 35531 35533 28
28427 35531 35534 28
28428 35531 35535 28
28429 35536 35537 28
28430 35536 35538 28
28431 35536 35539 28
28432 35536 35540 28
28433 35541 35542 28
28434 35541 35543 28
28435 35541 35544 28
28436 35541 35545 28
28437 35546 35547 28
28438 35546 35548 28
28439 35546 35549 28
28440 35546 35550 28
28441 35551 35552 28
28442 35551 35553 28
28443 35551 35554 28
28444 35551 35555 28
28445 35556 35557 28
28446 35556 35558 28
28447 35556 35559 28
28448 35556 35560 28
28449 35561 35562 28
28450 35561 35563 28
28451 35561 35564 28
28452 35561 35565 28
28453 35566 35567 28
28454 35566 35568 28
28455 35566 35569 28
28456 35566 35570 28
28457 35571 35572 28
28458 35571 35573 28
28459 35571 35574 28
28460 35571 35575 28
28461 35576 35577 28
28462 35576 35578 28
28463 35576 35579 28
28464 35576 35580 28
28465 35581 35582 28
28466 35581 35583 28
28467 35581 35584 28
28468 35581 35585 28
28469 35586 35587 28
28470 35586 35588 28
28471 35586 35589 28
28472 35586 35590 28
28473 35591 35592 28
28474 35591 35593 28
28475 35591 35594 28
28476 35591 35595 28
28477 35596 35597 28
28478 35596 35598 28
28479 35596 35599 28
28480 35596 35600 28
28481 35601 35602 28
28482 35601 35603 28
28483 35601 35604 28
28484 35601 35605 28
28485 35606 35607 28
28486 35606 35608 28
28487 35606 35609 28
28488 35606 35610 28
28489 35611 35612 28
28490 35611 35613 28
28491 35611 35614 28
28492 35611 35615 28
28493 35616 35617 28
28494 35616 35618 28
28495 35616 35619 28
28496 35616 35620 28
28497 35621 35622 28
28498 35621 35623 28
28499 35621 35624 28
28500 35621 35625 28
28501 35626 35627 28
28502 35626 35628 28
28503 35626 35629 28
28504 35626 35630 28
28505 35631 35632 28
28506 35631 35633 28
28507 35631 35634 28
28508 35631 35635 28
28509 35636 35637 28
28510 35636 35638 28
28511 35636 35639 28
28512 35636 35640 28
28513 35641 35642 28
28514 35641 35643 28
28515 35641 35644 28
28516 35641 35645 28
28517 35646 35647 28
28518 35646 35648 28
28519 35646 35649 28
28520 35646 35650 28
28521 35651 35652 28
28522 35651 35653 28
28523 35651 35654 28
28524 35651 35655 28
28525 35656 35657 28
28526 35656 35658 28
28527 35656 35659 28
28528 35656 35660 28
28529 35661 35662 28
28530 35661 35663 28
28531 35661 35664 28
28532 35661 35665 28
28533 35666 35667 28
28534 35666 35668 28
28535 35666 35669 28
28536 35666 35670 28
28537 35671 35672 28
28538 35671 35673 28
28539 35671 35674 28
28540 35671 35675 28
28541 35676 35677 28
28542 35676 35678 28
28543 35676 35679 28
28544 35676 35680 28
28545 35681 35682 28
28546 35681 35683 28
28547 35681 35684 28
28548 35681 35685 28
28549 35686 35687 28
28550 35686 35688 28
28551 35686 35689 28
28552 35686 35690 28
28553 35691 35692 28
28554 35691 35693 28
28555 35691 35694 28
28556 35691 35695 28
28557 35696 35697 28
28558 35696 35698 28
28559 35696 35699 28
28560 35696 35700 28
28561 35701 35702 28
28562 35701 35703 28
28563 35701 35704 28
28564 35701 35705 28
28565 35706 35707 28
28566 35706 35708 28
28567 35706 35709 28
28568 35706 35710 28
28569 35711 35712 28
28570 35711 35713 28
28571 35711 35714 28
28572 35711 35715 28
28573 35716 35717 28
28574 35716 35718 28
28575 35716 35719 28
28576 35716 35720 28
28577 35721 35722 28
28578 35721 35723 28
28579 35721 35724 28
28580 35721 35725 28
28581 35726 35727 28
28582 35726 35728 28
28583 35726 35729 28
28584 35726 35730 28
28585 35731 35732 28
28586 35731 35733 28
28587 35731 35734 28
28588 35731 35735 28
28589 35736 35737 28
28590 35736 35738 28
28591 35736 35739 28
28592 35736 35740 28
28593 35741 35742 28
28594 35741 35743 28
28595 35741 35744 28
28596 35741 35745 28
28597 35746 35747 28
28598 35746 35748 28
28599 35746 35749 28
28600 35746 35750 28
28601 35751 35752 28
28602 35751 35753 28
28603 35751 35754 28
28604 35751 35755 28
28605 35756 35757 28
28606 35756 35758 28
28607 35756 35759 28
28608 35756 35760 28
28609 35761 35762 28
28610 35761 35763 28
28611 35761 35764 28
28612 35761 35765 28
28613 35766 35767 28
28614 35766 35768 28
28615 35766 35769 28
28616 35766 35770 28
28617 35771 35772 28
28618 35771 35773 28
28619 35771 35774 28
28620 35771 35775 28
28621 35776 35777 28
28622 35776 35778 28
28623 35776 35779 28
28624 35776 35780 28
28625 35781 35782 28
28626 35781 35783 28
28627 35781 35784 28
28628 35781 35785 28
28629 35786 35787 28
28630 35786 35788 28
28631 35786 35789 28
28632 35786 35790 28
28633 35791 35792 28
28634 35791 35793 28
28635 35791 35794 28
28636 35791 35795 28
28637 35796 35797 28
28638 35796 35798 28
28639 35796 35799 28
28640 35796 35800 28
28641 35801 35802 28
28642 35801 35803 28
28643 35801 35804 28
28644 35801 35805 28
28645 35806 35807 28
28646 35806 35808 28
28647 35806 35809 28
28648 35806 35810 28
28649 35811 35812 28
28650 35811 35813 28
28651 35811 35814 28
28652 35811 35815 28
28653 35816 35817 28
28654 35816 35818 28
28655 35816 35819 28
28656 35816 35820 28
28657 35821 35822 28
28658 35821 35823 28
28659 35821 35824 28
28660 35821 35825 28
28661 35826 35827 28
28662 35826 35828 28
28663 35826 35829 28
28664 35826 35830 28
28665 35831 35832 28
28666 35831 35833 28
28667 35831 35834 28
28668 35831 35835 28
28669 35836 35837 28
28670 35836 35838 28
28671 35836 35839 28
28672 35836 35840 28
28673 35841 35842 28
28674 35841 35843 28
28675 35841 35844 28
28676 35841 35845 28
28677 35846 35847 28
28678 35846 35848 28
28679 35846 35849 28
28680 35846 35850 28
28681 35851 35852 28
28682 35851 35853 28
28683 35851 35854 28
28684 35851 35855 28
28685 35856 35857 28
28686 35856 35858 28
28687 35856 35859 28
28688 35856 35860 28
28689 35861 35862 28
28690 35861 35863 28
28691 35861 35864 28
28692 35861 35865 28
28693 35866 35867 28
28694 35866 35868 28
28695 35866 35869 28
28696 35866 35870 28
28697 35871 35872 28
28698 35871 35873 28
28699 35871 35874 28
28700 35871 35875 28
28701 35876 35877 28
28702 35876 35878 28
28703 35876 35879 28
28704 35876 35880 28
28705 35881 35882 28
28706 35881 35883 28
28707 35881 35884 28
28708 35881 35885 28
28709 35886 35887 28
28710 35886 35888 28
28711 35886 35889 28
28712 35886 35890 28
28713 35891 35892 28
28714 35891 35893 28
28715 35891 35894 28
28716 35891 35895 28
28717 35896 35897 28
28718 35896 35898 28
28719 35896 35899 28
28720 35896 35900 28
28721 35901 35902 28
28722 35901 35903 28
28723 35901 35904 28
28724 35901 35905 28
28725 35906 35907 28
28726 35906 35908 28
28727 35906 35909 28
28728 35906 35910 28
28729 35911 35912 28
28730 35911 35913 28
28731 35911 35914 28
28732 35911 35915 28
28733 35916 35917 28
28734 35916 35918 28
28735 35916 35919 28
28736 35916 35920 28
28737 35921 35922 28
28738 35921 35923 28
28739 35921 35924 28
28740 35921 35925 28
28741 35926 35927 28
28742 35926 35928 28
28743 35926 35929 28
28744 35926 35930 28
28745 35931 35932 28
28746 35931 35933 28
28747 35931 35934 28
28748 35931 35935 28
28749 35936 35937 28
28750 35936 35938 28
28751 35936 35939 28
28752 35936 35940 28
28753 35941 35942 28
28754 35941 35943 28
28755 35941 35944 28
28756 35941 35945 28
28757 35946 35947 28
28758 35946 35948 28
28759 35946 35949 28
28760 35946 35950 28
28761 35951 35952 28
28762 35951 35953 28
28763 35951 35954 28
28764 35951 35955 28
28765 35956 35957 28
28766 35956 35958 28
28767 35956 35959 28
28768 35956 35960 28
28769 35961 35962 28
28770 35961 35963 28
28771 35961 35964 28
28772 35961 35965 28
28773 35966 35967 28
28774 35966 35968 28
28775 35966 35969 28
28776 35966 35970 28
28777 35971 35972 28
28778 35971 35973 28
28779 35971 35974 28
28780 35971 35975 28
28781 35976 35977 28
28782 35976 35978 28
28783 35976 35979 28
28784 35976 35980 28
28785 35981 35982 28
28786 35981 35983 28
28787 35981 35984 28
28788 35981 35985 28
28789 35986 35987 28
28790 35986 35988 28
28791 35986 35989 28
28792 35986 35990 28
28793 35991 35992 28
28794 35991 35993 28
28795 35991 35994 28
28796 35991 35995 28
28797 35996 35997 28
28798 35996 35998 28
28799 35996 35999 28
28800 35996 36000 28
28801 36001 36002 28
28802 36001 36003 28
28803 36001 36004 28
28804 36001 36005 28
28805 36006 36007 28
28806 36006 36008 28
28807 36006 36009 28
28808 36006 36010 28
28809 36011 36012 28
28810 36011 36013 28
28811 36011 36014 28
28812 36011 36015 28
28813 36016 36017 28
28814 36016 36018 28
28815 36016 36019 28
28816 36016 36020 28
28817 36021 36022 28
28818 36021 36023 28
28819 36021 36024 28
28820 36021 36025 28
28821 36026 36027 28
28822 36026 36028 28
28823 36026 36029 28
28824 36026 36030 28
28825 36031 36032 28
28826 36031 36033 28
28827 36031 36034 28
28828 36031 36035 28
28829 36036 36037 28
28830 36036 36038 28
28831 36036 36039 28
28832 36036 36040 28
28833 36041 36042 28
28834 36041 36043 28
28835 36041 36044 28
28836 36041 36045 28
28837 36046 36047 28
28838 36046 36048 28
28839 36046 36049 28
28840 36046 36050 28
28841 36051 36052 28
28842 36051 36053 28
28843 36051 36054 28
28844 36051 36055 28
28845 36056 36057 28
28846 36056 36058 28
28847 36056 36059 28
28848 36056 36060 28
28849 36061 36062 28
28850 36061 36063 28
28851 36061 36064 28
28852 36061 36065 28
28853 36066 36067 28
28854 36066 36068 28
28855 36066 36069 28
28856 36066 36070 28
28857 36071 36072 28
28858 36071 36073 28
28859 36071 36074 28
28860 36071 36075 28
28861 36076 36077 28
28862 36076 36078 28
28863 36076 36079 28
28864 36076 36080 28
28865 36081 36082 28
28866 36081 36083 28
28867 36081 36084 28
28868 36081 36085 28
28869 36086 36087 28
28870 36086 36088 28
28871 36086 36089 28
28872 36086 36090 28
28873 36091 36092 28
28874 36091 36093 28
28875 36091 36094 28
28876 36091 36095 28
28877 36096 36097 28
28878 36096 36098 28
28879 36096 36099 28
28880 36096 36100 28
28881 36101 36102 28
28882 36101 36103 28
28883 36101 36104 28
28884 36101 36105 28
28885 36106 36107 28
28886 36106 36108 28
28887 36106 36109 28
28888 36106 36110 28
28889 36111 36112 28
28890 36111 36113 28
28891 36111 36114 28
28892 36111 36115 28
28893 36116 36117 28
28894 36116 36118 28
28895 36116 36119 28
28896 36116 36120 28
28897 36121 36122 28
28898 36121 36123 28
28899 36121 36124 28
28900 36121 36125 28
28901 36126 36127 28
28902 36126 36128 28
28903 36126 36129 28
28904 36126 36130 28
28905 36131 36132 28
28906 36131 36133 28
28907 36131 36134 28
28908 36131 36135 28
28909 36136 36137 28
28910 36136 36138 28
28911 36136 36139 28
28912 36136 36140 28
28913 36141 36142 28
28914 36141 36143 28
28915 36141 36144 28
28916 36141 36145 28
28917 36146 36147 28
28918 36146 36148 28
28919 36146 36149 28
28920 36146 36150 28
28921 36151 36152 28
28922 36151 36153 28
28923 36151 36154 28
28924 36151 36155 28
28925 36156 36157 28
28926 36156 36158 28
28927 36156 36159 28
28928 36156 36160 28
28929 36161 36162 28
28930 36161 36163 28
28931 36161 36164 28
28932 36161 36165 28
28933 36166 36167 28
28934 36166 36168 28
28935 36166 36169 28
28936 36166 36170 28
28937 36171 36172 28
28938 36171 36173 28
28939 36171 36174 28
28940 36171 36175 28
28941 36176 36177 28
28942 36176 36178 28
28943 36176 36179 28
28944 36176 36180 28
28945 36181 36182 28
28946 36181 36183 28
28947 36181 36184 28
28948 36181 36185 28
28949 36186 36187 28
28950 36186 36188 28
28951 36186 36189 28
28952 36186 36190 28
28953 36191 36192 28
28954 36191 36193 28
28955 36191 36194 28
28956 36191 36195 28
28957 36196 36197 28
28958 36196 36198 28
28959 36196 36199 28
28960 36196 36200 28
28961 36201 36202 28
28962 36201 36203 28
28963 36201 36204 28
28964 36201 36205 28
28965 36206 36207 28
28966 36206 36208 28
28967 36206 36209 28
28968 36206 36210 28
28969 36211 36212 28
28970 36211 36213 28
28971 36211 36214 28
28972 36211 36215 28
28973 36216 36217 28
28974 36216 36218 28
28975 36216 36219 28
28976 36216 36220 28
28977 36221 36222 28
28978 36221 36223 28
28979 36221 36224 28
28980 36221 36225 28
28981 36226 36227 28
28982 36226 36228 28
28983 36226 36229 28
28984 36226 36230 28
28985 36231 36232 28
28986 36231 36233 28
28987 36231 36234 28
28988 36231 36235 28
28989 36236 36237 28
28990 36236 36238 28
28991 36236 36239 28
28992 36236 36240 28
28993 36241 36242 28
28994 36241 36243 28
28995 36241 36244 28
28996 36241 36245 28
28997 36246 36247 28
28998 36246 36248 28
28999 36246 36249 28
29000 36246 36250 28
29001 36251 36252 28
29002 36251 36253 28
29003 36251 36254 28
29004 36251 36255 28
29005 36256 36257 28
29006 36256 36258 28
29007 36256 36259 28
29008 36256 36260 28
29009 36261 36262 28
29010 36261 36263 28
29011 36261 36264 28
29012 36261 36265 28
29013 36266 36267 28
29014 36266 36268 28
29015 36266 36269 28
29016 36266 36270 28
29017 36271 36272 28
29018 36271 36273 28
29019 36271 36274 28
29020 36271 36275 28
29021 36276 36277 28
29022 36276 36278 28
29023 36276 36279 28
29024 36276 36280 28
29025 36281 36282 28
29026 36281 36283 28
29027 36281 36284 28
29028 36281 36285 28
29029 36286 36287 28
29030 36286 36288 28
29031 36286 36289 28
29032 36286 36290 28
29033 36291 36292 28
29034 36291 36293 28
29035 36291 36294 28
29036 36291 36295 28
29037 36296 36297 28
29038 36296 36298 28
29039 36296 36299 28
29040 36296 36300 28
29041 36301 36302 28
29042 36301 36303 28
29043 36301 36304 28
29044 36301 36305 28
29045 36306 36307 28
29046 36306 36308 28
29047 36306 36309 28
29048 36306 36310 28
29049 36311 36312 28
29050 36311 36313 28
29051 36311 36314 28
29052 36311 36315 28
29053 36316 36317 28
29054 36316 36318 28
29055 36316 36319 28
29056 36316 36320 28
29057 36321 36322 28
29058 36321 36323 28
29059 36321 36324 28
29060 36321 36325 28
29061 36326 36327 28
29062 36326 36328 28
29063 36326 36329 28
29064 36326 36330 28
29065 36331 36332 28
29066 36331 36333 28
29067 36331 36334 28
29068 36331 36335 28
29069 36336 36337 28
29070 36336 36338 28
29071 36336 36339 28
29072 36336 36340 28
29073 36341 36342 28
29074 36341 36343 28
29075 36341 36344 28
29076 36341 36345 28
29077 36346 36347 28
29078 36346 36348 28
29079 36346 36349 28
29080 36346 36350 28
29081 36351 36352 28
29082 36351 36353 28
29083 36351 36354 28
29084 36351 36355 28
29085 36356 36357 28
29086 36356 36358 28
29087 36356 36359 28
29088 36356 36360 28
29089 36361 36362 28
29090 36361 36363 28
29091 36361 36364 28
29092 36361 36365 28
29093 36366 36367 28
29094 36366 36368 28
29095 36366 36369 28
29096 36366 36370 28
29097 36371 36372 28
29098 36371 36373 28
29099 36371 36374 28
29100 36371 36375 28
29101 36376 36377 28
29102 36376 36378 28
29103 36376 36379 28
29104 36376 36380 28
29105 36381 36382 28
29106 36381 36383 28
29107 36381 36384 28
29108 36381 36385 28
29109 36386 36387 28
29110 36386 36388 28
29111 36386 36389 28
29112 36386 36390 28
29113 36391 36392 28
29114 36391 36393 28
29115 36391 36394 28
29116 36391 36395 28
29117 36396 36397 28
29118 36396 36398 28
29119 36396 36399 28
29120 36396 36400 28
29121 36401 36402 28
29122 36401 36403 28
29123 36401 36404 28
29124 36401 36405 28
29125 36406 36407 28
29126 36406 36408 28
29127 36406 36409 28
29128 36406 36410 28
29129 36411 36412 28
29130 36411 36413 28
29131 36411 36414 28
29132 36411 36415 28
29133 36416 36417 28
29134 36416 36418 28
29135 36416 36419 28
29136 36416 36420 28
29137 36421 36422 28
29138 36421 36423 28
29139 36421 36424 28
29140 36421 36425 28
29141 36426 36427 28
29142 36426 36428 28
29143 36426 36429 28
29144 36426 36430 28
29145 36431 36432 28
29146 36431 36433 28
29147 36431 36434 28
29148 36431 36435 28
29149 36436 36437 28
29150 36436 36438 28
29151 36436 36439 28
29152 36436 36440 28
29153 36441 36442 28
29154 36441 36443 28
29155 36441 36444 28
29156 36441 36445 28
29157 36446 36447 28
29158 36446 36448 28
29159 36446 36449 28
29160 36446 36450 28
29161 36451 36452 28
29162 36451 36453 28
29163 36451 36454 28
29164 36451 36455 28
29165 36456 36457 28
29166 36456 36458 28
29167 36456 36459 28
29168 36456 36460 28
29169 36461 36462 28
29170 36461 36463 28
29171 36461 36464 28
29172 36461 36465 28
29173 36466 36467 28
29174 36466 36468 28
29175 36466 36469 28
29176 36466 36470 28
29177 36471 36472 28
29178 36471 36473 28
29179 36471 36474 28
29180 36471 36475 28
29181 36476 36477 28
29182 36476 36478 28
29183 36476 36479 28
29184 36476 36480 28
29185 36481 36482 28
29186 36481 36483 28
29187 36481 36484 28
29188 36481 36485 28
29189 36486 36487 28
29190 36486 36488 28
29191 36486 36489 28
29192 36486 36490 28
29193 36491 36492 28
29194 36491 36493 28
29195 36491 36494 28
29196 36491 36495 28
29197 36496 36497 28
29198 36496 36498 28
29199 36496 36499 28
29200 36496 36500 28
29201 36501 36502 28
29202 36501 36503 28
29203 36501 36504 28
29204 36501 36505 28
29205 36506 36507 28
29206 36506 36508 28
29207 36506 36509 28
29208 36506 36510 28
29209 36511 36512 28
29210 36511 36513 28
29211 36511 36514 28
29212 36511 36515 28
29213 36516 36517 28
29214 36516 36518 28
29215 36516 36519 28
29216 36516 36520 28
29217 36521 36522 28
29218 36521 36523 28
29219 36521 36524 28
29220 36521 36525 28
29221 36526 36527 28
29222 36526 36528 28
29223 36526 36529 28
29224 36526 36530 28
29225 36531 36532 28
29226 36531 36533 28
29227 36531 36534 28
29228 36531 36535 28
29229 36536 36537 28
29230 36536 36538 28
29231 36536 36539 28
29232 36536 36540 28
29233 36541 36542 28
29234 36541 36543 28
29235 36541 36544 28
29236 36541 36545 28
29237 36546 36547 28
29238 36546 36548 28
29239 36546 36549 28
29240 36546 36550 28
29241 36551 36552 28
29242 36551 36553 28
29243 36551 36554 28
29244 36551 36555 28
29245 36556 36557 28
29246 36556 36558 28
29247 36556 36559 28
29248 36556 36560 28
29249 36561 36562 28
29250 36561 36563 28
29251 36561 36564 28
29252 36561 36565 28
29253 36566 36567 28
29254 36566 36568 28
29255 36566 36569 28
29256 36566 36570 28
29257 36571 36572 28
29258 36571 36573 28
29259 36571 36574 28
29260 36571 36575 28
29261 36576 36577 28
29262 36576 36578 28
29263 36576 36579 28
29264 36576 36580 28
29265 36581 36582 28
29266 36581 36583 28
29267 36581 36584 28
29268 36581 36585 28
29269 36586 36587 28
29270 36586 36588 28
29271 36586 36589 28
29272 36586 36590 28
29273 36591 36592 28
29274 36591 36593 28
29275 36591 36594 28
29276 36591 36595 28
29277 36596 36597 28
29278 36596 36598 28
29279 36596 36599 28
29280 36596 36600 28
29281 36601 36602 28
29282 36601 36603 28
29283 36601 36604 28
29284 36601 36605 28
29285 36606 36607 28
29286 36606 36608 28
29287 36606 36609 28
29288 36606 36610 28
29289 36611 36612 28
29290 36611 36613 28
29291 36611 36614 28
29292 36611 36615 28
29293 36616 36617 28
29294 36616 36618 28
29295 36616 36619 28
29296 36616 36620 28
29297 36621 36622 28
29298 36621 36623 28
29299 36621 36624 28
29300 36621 36625 28
29301 36626 36627 28
29302 36626 36628 28
29303 36626 36629 28
29304 36626 36630 28
29305 36631 36632 28
29306 36631 36633 28
29307 36631 36634 28
29308 36631 36635 28
29309 36636 36637 28
29310 36636 36638 28
29311 36636 36639 28
29312 36636 36640 28
29313 36641 36642 28
29314 36641 36643 28
29315 36641 36644 28
29316 36641 36645 28
29317 36646 36647 28
29318 36646 36648 28
29319 36646 36649 28
29320 36646 36650 28
29321 36651 36652 28
29322 36651 36653 28
29323 36651 36654 28
29324 36651 36655 28
29325 36656 36657 28
29326 36656 36658 28
29327 36656 36659 28
29328 36656 36660 28
29329 36661 36662 28
29330 36661 36663 28
29331 36661 36664 28
29332 36661 36665 28
29333 36666 36667 28
29334 36666 36668 28
29335 36666 36669 28
29336 36666 36670 28
29337 36671 36672 28
29338 36671 36673 28
29339 36671 36674 28
29340 36671 36675 28
29341 36676 36677 28
29342 36676 36678 28
29343 36676 36679 28
29344 36676 36680 28
29345 36681 36682 28
29346 36681 36683 28
29347 36681 36684 28
29348 36681 36685 28
29349 36686 36687 28
29350 36686 36688 28
29351 36686 36689 28
29352 36686 36690 28
29353 36691 36692 28
29354 36691 36693 28
29355 36691 36694 28
29356 36691 36695 28
29357 36696 36697 28
29358 36696 36698 28
29359 36696 36699 28
29360 36696 36700 28
29361 36701 36702 28
29362 36701 36703 28
29363 36701 36704 28
29364 36701 36705 28
29365 36706 36707 28
29366 36706 36708 28
29367 36706 36709 28
29368 36706 36710 28
29369 36711 36712 28
29370 36711 36713 28
29371 36711 36714 28
29372 36711 36715 28
29373 36716 36717 28
29374 36716 36718 28
29375 36716 36719 28
29376 36716 36720 28
29377 36721 36722 28
29378 36721 36723 28
29379 36721 36724 28
29380 36721 36725 28
29381 36726 36727 28
29382 36726 36728 28
29383 36726 36729 28
29384 36726 36730 28
29385 36731 36732 28
29386 36731 36733 28
29387 36731 36734 28
29388 36731 36735 28
29389 36736 36737 28
29390 36736 36738 28
29391 36736 36739 28
29392 36736 36740 28
29393 36741 36742 28
29394 36741 36743 28
29395 36741 36744 28
29396 36741 36745 28
29397 36746 36747 28
29398 36746 36748 28
29399 36746 36749 28
29400 36746 36750 28
29401 36751 36752 28
29402 36751 36753 28
29403 36751 36754 28
29404 36751 36755 28
29405 36756 36757 28
29406 36756 36758 28
29407 36756 36759 28
29408 36756 36760 28
29409 36761 36762 28
29410 36761 36763 28
29411 36761 36764 28
29412 36761 36765 28
29413 36766 36767 28
29414 36766 36768 28
29415 36766 36769 28
29416 36766 36770 28
29417 36771 36772 28
29418 36771 36773 28
29419 36771 36774 28
29420 36771 36775 28
29421 36776 36777 28
29422 36776 36778 28
29423 36776 36779 28
29424 36776 36780 28
29425 36781 36782 28
29426 36781 36783 28
29427 36781 36784 28
29428 36781 36785 28
29429 36786 36787 28
29430 36786 36788 28
29431 36786 36789 28
29432 36786 36790 28
29433 36791 36792 28
29434 36791 36793 28
29435 36791 36794 28
29436 36791 36795 28
29437 36796 36797 28
29438 36796 36798 28
29439 36796 36799 28
29440 36796 36800 28
29441 36801 36802 28
29442 36801 36803 28
29443 36801 36804 28
29444 36801 36805 28
29445 36806 36807 28
29446 36806 36808 28
29447 36806 36809 28
29448 36806 36810 28
29449 36811 36812 28
29450 36811 36813 28
29451 36811 36814 28
29452 36811 36815 28
29453 36816 36817 28
29454 36816 36818 28
29455 36816 36819 28
29456 36816 36820 28
29457 36821 36822 28
29458 36821 36823 28
29459 36821 36824 28
29460 36821 36825 28
29461 36826 36827 28
29462 36826 36828 28
29463 36826 36829 28
29464 36826 36830 28
29465 36831 36832 28
29466 36831 36833 28
29467 36831 36834 28
29468 36831 36835 28
29469 36836 36837 28
29470 36836 36838 28
29471 36836 36839 28
29472 36836 36840 28
29473 36841 36842 28
29474 36841 36843 28
29475 36841 36844 28
29476 36841 36845 28
29477 36846 36847 28
29478 36846 36848 28
29479 36846 36849 28
29480 36846 36850 28
29481 36851 36852 28
29482 36851 36853 28
29483 36851 36854 28
29484 36851 36855 28
29485 36856 36857 28
29486 36856 36858 28
29487 36856 36859 28
29488 36856 36860 28
29489 36861 36862 28
29490 36861 36863 28
29491 36861 36864 28
29492 36861 36865 28
29493 36866 36867 28
29494 36866 36868 28
29495 36866 36869 28
29496 36866 36870 28
29497 36871 36872 28
29498 36871 36873 28
29499 36871 36874 28
29500 36871 36875 28
29501 36876 36877 28
29502 36876 36878 28
29503 36876 36879 28
29504 36876 36880 28
29505 36881 36882 28
29506 36881 36883 28
29507 36881 36884 28
29508 36881 36885 28
29509 36886 36887 28
29510 36886 36888 28
29511 36886 36889 28
29512 36886 36890 28
29513 36891 36892 28
29514 36891 36893 28
29515 36891 36894 28
29516 36891 36895 28
29517 36896 36897 28
29518 36896 36898 28
29519 36896 36899 28
29520 36896 36900 28
29521 36901 36902 28
29522 36901 36903 28
29523 36901 36904 28
29524 36901 36905 28
29525 36906 36907 28
29526 36906 36908 28
29527 36906 36909 28
29528 36906 36910 28
29529 36911 36912 28
29530 36911 36913 28
29531 36911 36914 28
29532 36911 36915 28
29533 36916 36917 28
29534 36916 36918 28
29535 36916 36919 28
29536 36916 36920 28
29537 36921 36922 28
29538 36921 36923 28
29539 36921 36924 28
29540 36921 36925 28
29541 36926 36927 28
29542 36926 36928 28
29543 36926 36929 28
29544 36926 36930 28
29545 36931 36932 28
29546 36931 36933 28
29547 36931 36934 28
29548 36931 36935 28
29549 36936 36937 28
29550 36936 36938 28
29551 36936 36939 28
29552 36936 36940 28
29553 36941 36942 28
29554 36941 36943 28
29555 36941 36944 28
29556 36941 36945 28
29557 36946 36947 28
29558 36946 36948 28
29559 36946 36949 28
29560 36946 36950 28
29561 36951 36952 28
29562 36951 36953 28
29563 36951 36954 28
29564 36951 36955 28
29565 36956 36957 28
29566 36956 36958 28
29567 36956 36959 28
29568 36956 36960 28
29569 36961 36962 28
29570 36961 36963 28
29571 36961 36964 28
29572 36961 36965 28
29573 36966 36967 28
29574 36966 36968 28
29575 36966 36969 28
29576 36966 36970 28
29577 36971 36972 28
29578 36971 36973 28
29579 36971 36974 28
29580 36971 36975 28
29581 36976 36977 28
29582 36976 36978 28
29583 36976 36979 28
29584 36976 36980 28
29585 36981 36982 28
29586 36981 36983 28
29587 36981 36984 28
29588 36981 36985 28
29589 36986 36987 28
29590 36986 36988 28
29591 36986 36989 28
29592 36986 36990 28
29593 36991 36992 28
29594 36991 36993 28
29595 36991 36994 28
29596 36991 36995 28
29597 36996 36997 28
29598 36996 36998 28
29599 36996 36999 28
29600 36996 37000 28
29601 37001 37002 28
29602 37001 37003 28
29603 37001 37004 28
29604 37001 37005 28
29605 37006 37007 28
29606 37006 37008 28
29607 37006 37009 28
29608 37006 37010 28
29609 37011 37012 28
29610 37011 37013 28
29611 37011 37014 28
29612 37011 37015 28
29613 37016 37017 28
29614 37016 37018 28
29615 37016 37019 28
29616 37016 37020 28
29617 37021 37022 28
29618 37021 37023 28
29619 37021 37024 28
29620 37021 37025 28
29621 37026 37027 28
29622 37026 37028 28
29623 37026 37029 28
29624 37026 37030 28
29625 37031 37032 28
29626 37031 37033 28
29627 37031 37034 28
29628 37031 37035 28
29629 37036 37037 28
29630 37036 37038 28
29631 37036 37039 28
29632 37036 37040 28
29633 37041 37042 28
29634 37041 37043 28
29635 37041 37044 28
29636 37041 37045 28
29637 37046 37047 28
29638 37046 37048 28
29639 37046 37049 28
29640 37046 37050 28
29641 37051 37052 28
29642 37051 37053 28
29643 37051 37054 28
29644 37051 37055 28
29645 37056 37057 28
29646 37056 37058 28
29647 37056 37059 28
29648 37056 37060 28
29649 37061 37062 28
29650 37061 37063 28
29651 37061 37064 28
29652 37061 37065 28
29653 37066 37067 28
29654 37066 37068 28
29655 37066 37069 28
29656 37066 37070 28
29657 37071 37072 28
29658 37071 37073 28
29659 37071 37074 28
29660 37071 37075 28
29661 37076 37077 28
29662 37076 37078 28
29663 37076 37079 28
29664 37076 37080 28
29665 37081 37082 28
29666 37081 37083 28
29667 37081 37084 28
29668 37081 37085 28
29669 37086 37087 28
29670 37086 37088 28
29671 37086 37089 28
29672 37086 37090 28
29673 37091 37092 28
29674 37091 37093 28
29675 37091 37094 28
29676 37091 37095 28
29677 37096 37097 28
29678 37096 37098 28
29679 37096 37099 28
29680 37096 37100 28
29681 37101 37102 28
29682 37101 37103 28
29683 37101 37104 28
29684 37101 37105 28
29685 37106 37107 28
29686 37106 37108 28
29687 37106 37109 28
29688 37106 37110 28
29689 37111 37112 28
29690 37111 37113 28
29691 37111 37114 28
29692 37111 37115 28
29693 37116 37117 28
29694 37116 37118 28
29695 37116 37119 28
29696 37116 37120 28
29697 37121 37122 28
29698 37121 37123 28
29699 37121 37124 28
29700 37121 37125 28
29701 37126 37127 28
29702 37126 37128 28
29703 37126 37129 28
29704 37126 37130 28
29705 37131 37132 28
29706 37131 37133 28
29707 37131 37134 28
29708 37131 37135 28
29709 37136 37137 28
29710 37136 37138 28
29711 37136 37139 28
29712 37136 37140 28
29713 37141 37142 28
29714 37141 37143 28
29715 37141 37144 28
29716 37141 37145 28
29717 37146 37147 28
29718 37146 37148 28
29719 37146 37149 28
29720 37146 37150 28
29721 37151 37152 28
29722 37151 37153 28
29723 37151 37154 28
29724 37151 37155 28
29725 37156 37157 28
29726 37156 37158 28
29727 37156 37159 28
29728 37156 37160 28
29729 37161 37162 28
29730 37161 37163 28
29731 37161 37164 28
29732 37161 37165 28
29733 37166 37167 28
29734 37166 37168 28
29735 37166 37169 28
29736 37166 37170 28
29737 37171 37172 28
29738 37171 37173 28
29739 37171 37174 28
29740 37171 37175 28
29741 37176 37177 28
29742 37176 37178 28
29743 37176 37179 28
29744 37176 37180 28
29745 37181 37182 28
29746 37181 37183 28
29747 37181 37184 28
29748 37181 37185 28
29749 37186 37187 28
29750 37186 37188 28
29751 37186 37189 28
29752 37186 37190 28
29753 37191 37192 28
29754 37191 37193 28
29755 37191 37194 28
29756 37191 37195 28
29757 37196 37197 28
29758 37196 37198 28
29759 37196 37199 28
29760 37196 37200 28
29761 37201 37202 28
29762 37201 37203 28
29763 37201 37204 28
29764 37201 37205 28
29765 37206 37207 28
29766 37206 37208 28
29767 37206 37209 28
29768 37206 37210 28
29769 37211 37212 28
29770 37211 37213 28
29771 37211 37214 28
29772 37211 37215 28
29773 37216 37217 28
29774 37216 37218 28
29775 37216 37219 28
29776 37216 37220 28
29777 37221 37222 28
29778 37221 37223 28
29779 37221 37224 28
29780 37221 37225 28
29781 37226 37227 28
29782 37226 37228 28
29783 37226 37229 28
29784 37226 37230 28
29785 37231 37232 28
29786 37231 37233 28
29787 37231 37234 28
29788 37231 37235 28
29789 37236 37237 28
29790 37236 37238 28
29791 37236 37239 28
29792 37236 37240 28
29793 37241 37242 28
29794 37241 37243 28
29795 37241 37244 28
29796 37241 37245 28
29797 37246 37247 28
29798 37246 37248 28
29799 37246 37249 28
29800 37246 37250 28
29801 37251 37252 28
29802 37251 37253 28
29803 37251 37254 28
29804 37251 37255 28
29805 37256 37257 28
29806 37256 37258 28
29807 37256 37259 28
29808 37256 37260 28
29809 37261 37262 28
29810 37261 37263 28
29811 37261 37264 28
29812 37261 37265 28
29813 37266 37267 28
29814 37266 37268 28
29815 37266 37269 28
29816 37266 37270 28
29817 37271 37272 28
29818 37271 37273 28
29819 37271 37274 28
29820 37271 37275 28
29821 37276 37277 28
29822 37276 37278 28
29823 37276 37279 28
29824 37276 37280 28
29825 37281 37282 28
29826 37281 37283 28
29827 37281 37284 28
29828 37281 37285 28
29829 37286 37287 28
29830 37286 37288 28
29831 37286 37289 28
29832 37286 37290 28
29833 37291 37292 28
29834 37291 37293 28
29835 37291 37294 28
29836 37291 37295 28
29837 37296 37297 28
29838 37296 37298 28
29839 37296 37299 28
29840 37296 37300 28
29841 37301 37302 28
29842 37301 37303 28
29843 37301 37304 28
29844 37301 37305 28
29845 37306 37307 28
29846 37306 37308 28
29847 37306 37309 28
29848 37306 37310 28
29849 37311 37312 28
29850 37311 37313 28
29851 37311 37314 28
29852 37311 37315 28
29853 37316 37317 28
29854 37316 37318 28
29855 37316 37319 28
29856 37316 37320 28
29857 37321 37322 28
29858 37321 37323 28
29859 37321 37324 28
29860 37321 37325 28
29861 37326 37327 28
29862 37326 37328 28
29863 37326 37329 28
29864 37326 37330 28
29865 37331 37332 28
29866 37331 37333 28
29867 37331 37334 28
29868 37331 37335 28
29869 37336 37337 28
29870 37336 37338 28
29871 37336 37339 28
29872 37336 37340 28
29873 37341 37342 28
29874 37341 37343 28
29875 37341 37344 28
29876 37341 37345 28
29877 37346 37347 28
29878 37346 37348 28
29879 37346 37349 28
29880 37346 37350 28
29881 37351 37352 28
29882 37351 37353 28
29883 37351 37354 28
29884 37351 37355 28
29885 37356 37357 28
29886 37356 37358 28
29887 37356 37359 28
29888 37356 37360 28
29889 37361 37362 28
29890 37361 37363 28
29891 37361 37364 28
29892 37361 37365 28
29893 37366 37367 28
29894 37366 37368 28
29895 37366 37369 28
29896 37366 37370 28
29897 37371 37372 28
29898 37371 37373 28
29899 37371 37374 28
29900 37371 37375 28
29901 37376 37377 28
29902 37376 37378 28
29903 37376 37379 28
29904 37376 37380 28
29905 37381 37382 28
29906 37381 37383 28
29907 37381 37384 28
29908 37381 37385 28
29909 37386 37387 28
29910 37386 37388 28
29911 37386 37389 28
29912 37386 37390 28
29913 37391 37392 28
29914 37391 37393 28
29915 37391 37394 28
29916 37391 37395 28
29917 37396 37397 28
29918 37396 37398 28
29919 37396 37399 28
29920 37396 37400 28
29921 37401 37402 28
29922 37401 37403 28
29923 37401 37404 28
29924 37401 37405 28
29925 37406 37407 28
29926 37406 37408 28
29927 37406 37409 28
29928 37406 37410 28
29929 37411 37412 28
29930 37411 37413 28
29931 37411 37414 28
29932 37411 37415 28
29933 37416 37417 28
29934 37416 37418 28
29935 37416 37419 28
29936 37416 37420 28
29937 37421 37422 28
29938 37421 37423 28
29939 37421 37424 28
29940 37421 37425 28
29941 37426 37427 28
29942 37426 37428 28
29943 37426 37429 28
29944 37426 37430 28
29945 37431 37432 28
29946 37431 37433 28
29947 37431 37434 28
29948 37431 37435 28
29949 37436 37437 28
29950 37436 37438 28
29951 37436 37439 28
29952 37436 37440 28
29953 37441 37442 28
29954 37441 37443 28
29955 37441 37444 28
29956 37441 37445 28
29957 37446 37447 28
29958 37446 37448 28
29959 37446 37449 28
29960 37446 37450 28
29961 37451 37452 28
29962 37451 37453 28
29963 37451 37454 28
29964 37451 37455 28
29965 37456 37457 28
29966 37456 37458 28
29967 37456 37459 28
29968 37456 37460 28
29969 37461 37462 28
29970 37461 37463 28
29971 37461 37464 28
29972 37461 37465 28
29973 37466 37467 28
29974 37466 37468 28
29975 37466 37469 28
29976 37466 37470 28
29977 37471 37472 28
29978 37471 37473 28
29979 37471 37474 28
29980 37471 37475 28
29981 37476 37477 28
29982 37476 37478 28
29983 37476 37479 28
29984 37476 37480 28
29985 37481 37482 28
29986 37481 37483 28
29987 37481 37484 28
29988 37481 37485 28
29989 37486 37487 28
29990 37486 37488 28
29991 37486 37489 28
29992 37486 37490 28
29993 37491 37492 28
29994 37491 37493 28
29995 37491 37494 28
29996 37491 37495 28
29997 37496 37497 28
29998 37496 37498 28
29999 37496 37499 28
30000 37496 37500 28
@<TRIPOS>CRYSIN
216.9461430800414 216.9461430800414 216.9461430800414 90 90 90 1 1
